make[x]: Entering directory '/tests/openfoam-paraview/mesh/mesh001'
starting sofa-tasks.py in verbose mode
    with passed entryPoint:  upstreamLinks
*** update Upstream-Links in  mesh001  ***
start case constructor
with case-json:   /tests/openfoam-paraview/mesh/mesh001/sofa.mesh.FC-EXPORT.json
creating case:         		  >>  mesh001  <<
Skip existing folder      /openfoam-paraview/mesh/mesh001
Skip onlyAtCreation file: sofa.mesh.json
Skip correct link    /openfoam-paraview/mesh/mesh001/makefile 		 with pointer to   /tools/sofa-framework/study-structures/openfoam/mesh/case000/makefile_case_mesh.mk
Unabel to create target >/sofa-project/tools/sofa-framework/tests/openfoam-paraview/mesh/mesh001/.gitignore< since it exists
Skip existing file        /openfoam-paraview/mesh/mesh001/pv.foam
create upstream aspect links for:  	  >>  mesh001  <<
Skip correct link    cad001 		 with pointer to   ../../cad/cad001
Skip correct link    constant/triSurface/Body001_Geometry.stl 		 with pointer to   ../../cad/cad001/stl/Body001_Geometry.stl

*** finished sofa-tasks.py *** 

make python-pre
make[x]: Entering directory '/tests/openfoam-paraview/mesh/mesh001'
Hello Python-Pre-Script
make[x]: Leaving directory '/tests/openfoam-paraview/mesh/mesh001'
make[x]: Entering directory '/tests/openfoam-paraview/mesh/mesh001'
./Allmesh
/*---------------------------------------------------------------------------*\
  =========                 |
  \\      /  F ield         | OpenFOAM: The Open Source CFD Toolbox
   \\    /   O peration     | Website:  https://openfoam.org
    \\  /    A nd           | Version:  11
     \\/     M anipulation  |
\*---------------------------------------------------------------------------*/
Build  : 11-d5b4d966c3c5
Exec   : blockMesh
Date   : xxx xx xxxx
Time   : xx:xx:xx
Host   : "LocalMachine"
PID    : xxxxxx
I/O    : uncollated
Case   : /tests/openfoam-paraview/mesh/mesh001
nProcs : 1
sigFpe : Enabling floating point exception trapping (FOAM_SIGFPE).
fileModificationChecking : Monitoring run-time modified files using timeStampMaster (fileModificationSkew 10)
allowSystemOperations : Allowing user-supplied system call operations

// * * * * * * * * * * * * * * * * * * * * * * * * * * * * * * * * * * * * * //
Create time

Reading "blockMeshDict"

Creating block mesh from
    "system/blockMeshDict"
Creating block edges
No non-planar block faces defined
Creating topology blocks
Creating topology patches

Creating block mesh topology

Check topology

	Basic statistics
		Number of internal faces : 0
		Number of boundary faces : 6
		Number of defined boundary faces : 6
		Number of undefined boundary faces : 0
	Checking patch -> block consistency

Creating block offsets
Creating merge list .

Creating polyMesh from blockMesh
Creating patches
Creating cells
Creating points with scale 1
    Block 0 cell size :
        i : 0.00942857142857144
        j : 0.00978788076000623 .. 0.0097878807600062
        k : 0.00968518799604923 .. 0.0096851879960492

There are no merge patch pairs edges

Writing polyMesh
----------------
Mesh Information
----------------
  boundingBox: (-0.099 -0.049 -0.424000151786658) (0.099 0.274000065080206 0.099)
  nPoints: 41140
  nCells: 37422
  nFaces: 115875
  nInternalFaces: 108657
----------------
Patches
----------------
  patch 0 (start: 108657 size: 1782) name: xMin
  patch 1 (start: 110439 size: 1782) name: xMax
  patch 2 (start: 112221 size: 693) name: yMin
  patch 3 (start: 112914 size: 693) name: yMax
  patch 4 (start: 113607 size: 1134) name: zMin
  patch 5 (start: 114741 size: 1134) name: zMax

End

/*---------------------------------------------------------------------------*\
  =========                 |
  \\      /  F ield         | OpenFOAM: The Open Source CFD Toolbox
   \\    /   O peration     | Website:  https://openfoam.org
    \\  /    A nd           | Version:  11
     \\/     M anipulation  |
\*---------------------------------------------------------------------------*/
Build  : 11-d5b4d966c3c5
Exec   : surfaceFeatures
Date   : xxx xx xxxx
Time   : xx:xx:xx
Host   : "LocalMachine"
PID    : xxxxxx
I/O    : uncollated
Case   : /tests/openfoam-paraview/mesh/mesh001
nProcs : 1
sigFpe : Enabling floating point exception trapping (FOAM_SIGFPE).
fileModificationChecking : Monitoring run-time modified files using timeStampMaster (fileModificationSkew 10)
allowSystemOperations : Allowing user-supplied system call operations

// * * * * * * * * * * * * * * * * * * * * * * * * * * * * * * * * * * * * * //
Create time

Reading "surfaceFeaturesDict"

Surface            : "Body001_Geometry.stl"


Feature line extraction is only valid on closed manifold surfaces.
Statistics:
Triangles    : 3438
Vertices     : 1771
Bounding Box : (-0.0500000007450581 -1.09999999869629e-17 -0.375000149011612) (0.0500000007450581 0.22500005364418 0.0500000007450581)


Constructing feature set from included angle 150
Selecting edges purely based on geometric tests: no

Initial feature set:
    feature points : 100
    feature edges  : 300
    of which
        region edges   : 300
        external edges : 0
        internal edges : 0


Final feature set:
points      : 200
edges       : 300
boundingBox : (-0.0500000007450581 -1.09999999869629e-17 -0.375000149011612) (0.0500000007450581 0.22500005364418 0.0500000007450581)
point classification :
    convex feature points          :        0
    concave feature points         :        0
    mixed feature points           :      100
    other (non-feature) points     :      100
edge classification :
    external (convex angle) edges  :        0
    internal (concave angle) edges :        0
    flat region edges              :        0
    open edges                     :      257
    multiply connected edges       :       43

Writing extendedFeatureEdgeMesh to "constant/extendedFeatureEdgeMesh/Body001_Geometry.extendedFeatureEdgeMesh"

Writing extendedEdgeMesh components to "/tests/openfoam-paraview/mesh/mesh001/constant/extendedFeatureEdgeMesh/Body001_Geometry"

Writing featureEdgeMesh to "constant/triSurface/Body001_Geometry.eMesh"

ExecutionTime = x.xx s  ClockTime = x.xx s

End

/*---------------------------------------------------------------------------*\
  =========                 |
  \\      /  F ield         | OpenFOAM: The Open Source CFD Toolbox
   \\    /   O peration     | Website:  https://openfoam.org
    \\  /    A nd           | Version:  11
     \\/     M anipulation  |
\*---------------------------------------------------------------------------*/
Build  : 11-d5b4d966c3c5
Exec   : snappyHexMesh -overwrite
Date   : xxx xx xxxx
Time   : xx:xx:xx
Host   : "LocalMachine"
PID    : xxxxxx
I/O    : uncollated
Case   : /tests/openfoam-paraview/mesh/mesh001
nProcs : 1
sigFpe : Enabling floating point exception trapping (FOAM_SIGFPE).
fileModificationChecking : Monitoring run-time modified files using timeStampMaster (fileModificationSkew 10)
allowSystemOperations : Allowing user-supplied system call operations

// * * * * * * * * * * * * * * * * * * * * * * * * * * * * * * * * * * * * * //
Create time

Create mesh for time = 0

Read mesh in = x.xx s
Reading "snappyHexMeshDict"


Overall mesh bounding box  : (-0.099 -0.049 -0.424000151786658) (0.099 0.274000065080206 0.099)
Relative tolerance         : 1e-06
Absolute matching distance : 6.45803531122806e-07

Reading refinement surfaces...
Read refinement surfaces in = x.xx s

Reading refinement regions...
Read refinement regions in = 2.1e-05 s

Reading features...
Read edgeMesh Body001_Geometry.eMesh
    points      : 200
    edges       : 300
    boundingBox : (-0.0500000007450581 -1.09999999869629e-17 -0.375000149011612) (0.0500000007450581 0.22500005364418 0.0500000007450581)

Refinement level according to distance to "Body001_Geometry.eMesh" (200 points, 300 edges).
    level 0 for all cells within 0 metre.
Read features in = x.xx s


Determining initial surface intersections
-----------------------------------------

Edge intersection testing:
    Number of edges             : 115875
    Number of edges to retest   : 115875
    Number of intersected edges : 2500
Calculated surface intersections in = x.xx s

Initial mesh : cells:37422  faces:115875  points:41140
Cells per refinement level:
    0	37422

Adding patches for surface regions
----------------------------------

Patch Type                Region                        
----- ----                ------                        
Body001_Geometry:

6     wall                patch_1_0                     
7     wall                patch_2_0                     
8     wall                patch_3_0                     

Added patches in = x.xx s

Selecting distributor none
Cell selection insidePoints: 1((0 0 0))

Refinement phase
----------------

Found point (0 0 0) in cell 29914 on processor 0

Feature refinement iteration 0
------------------------------

Marked for refinement due to explicit features             : 0 cells.
Determined cells to refine in = x.xx s
Selected for feature refinement : 0 cells (out of 37422)
Stopping refining since too few cells selected.


Surface refinement iteration 0
------------------------------

Marked for refinement due to surface intersection          : 0 cells.
Determined cells to refine in = x.xx s
Selected for refinement : 0 cells (out of 37422)
Stopping refining since too few cells selected.


Removing mesh beyond surface intersections
------------------------------------------

Selecting all cells in regions containing any of the points in 1((0 0 0))
Selected: 14211 cells.
Edge intersection testing:
    Number of edges             : 51005
    Number of edges to retest   : 9526
    Number of intersected edges : 2500

Shell refinement iteration 0
----------------------------

Marked for refinement due to distance to explicit features : 0 cells.
Marked for refinement due to refinement shells             : 0 cells.
Determined cells to refine in = x.xx s
Selected for internal refinement : 0 cells (out of 14211)
Stopping refining since too few cells selected.


Dangling coarse cells refinement iteration 0
--------------------------------------------

Determined cells to refine in = x.xx s
Selected for refinement : 0 cells (out of 14211)
Stopping refining since too few cells selected.


Dangling coarse cells refinement iteration 0
--------------------------------------------

Determined cells to refine in = x.xx s
Selected for refinement : 0 cells (out of 14211)
Stopping refining since too few cells selected.


Splitting mesh at surface intersections
---------------------------------------

Introducing baffles for 2500 faces that are intersected by the surface.

Edge intersection testing:
    Number of edges             : 53505
    Number of edges to retest   : 14972
    Number of intersected edges : 5000
Created baffles in = x.xx s


After introducing baffles : cells:14211  faces:53505  points:22676
Cells per refinement level:
    0	14211

Introducing baffles to block off problem cells
----------------------------------------------

markFacesOnProblemCells : marked 5640 additional internal faces to be converted into baffles.
Analyzed problem cells in = x.xx s


Introducing baffles to delete problem cells.

Edge intersection testing:
    Number of edges             : 59145
    Number of edges to retest   : 16956
    Number of intersected edges : 5000
Created baffles in = x.xx s


After introducing baffles : cells:14211  faces:59145  points:22676
Cells per refinement level:
    0	14211

Remove unreachable sections of mesh
-----------------------------------

Keeping all cells in regions containing any point in 1((0 0 0))
Selected for keeping : 4595 cells.
Edge intersection testing:
    Number of edges             : 15033
    Number of edges to retest   : 0
    Number of intersected edges : 2492
Split mesh in = x.xx s


After subsetting : cells:4595  faces:15033  points:5922
Cells per refinement level:
    0	4595

Handling cells with snap problems
---------------------------------

Introducing baffles for 2492 faces that are intersected by the surface.

Edge intersection testing:
    Number of edges             : 15033
    Number of edges to retest   : 6796
    Number of intersected edges : 2492
Created baffles in = x.xx s


After introducing baffles : cells:4595  faces:15033  points:5922
Cells per refinement level:
    0	4595

Introducing baffles to block off problem cells
----------------------------------------------

markFacesOnProblemCells : marked 0 additional internal faces to be converted into baffles.
Analyzed problem cells in = x.xx s


Introducing baffles to delete problem cells.

Edge intersection testing:
    Number of edges             : 15033
    Number of edges to retest   : 0
    Number of intersected edges : 2492
Created baffles in = x.xx s


After introducing baffles : cells:4595  faces:15033  points:5922
Cells per refinement level:
    0	4595

Remove unreachable sections of mesh
-----------------------------------

Split mesh in = x.xx s


After subsetting : cells:4595  faces:15033  points:5922
Cells per refinement level:
    0	4595

Merge free-standing baffles
---------------------------

freeStandingBaffles : detected 0 free-standing baffles out of 0

Detected free-standing baffles : 0
Merged free-standing baffles in = x.xx s


dupNonManifoldPoints : Found : 0 non-manifold points (out of 5922)
Edge intersection testing:
    Number of edges             : 15033
    Number of edges to retest   : 0
    Number of intersected edges : 2492
Detected unsplittable baffles : 0

Merge refined boundary faces
----------------------------

Merging 0 sets of faces.

No faces merged ...

Merging all points on surface that
- are used by only two boundary faces and
- make an angle with a cosine of more than 0.707106781186548.

No straight edges simplified and no points removed ...
Refined mesh : cells:4595  faces:15033  points:5922
Cells per refinement level:
    0	4595
Writing mesh to time constant
Wrote mesh in = x.xx s.
Mesh refined in = x.xx s.

Morphing phase
--------------


Snapping to features in 10 iterations ...
Constructing mesh displacer ...
Using mesh parameters 
{
    maxNonOrtho     65;
    maxBoundarySkewness 20;
    maxInternalSkewness 4;
    maxConcave      80;
    minVol          1e-13;
    minTetQuality   -1;
    minArea         -1;
    minTwist        0.01;
    minDeterminant  0.001;
    minFaceWeight   0.05;
    minVolRatio     0.01;
    minTriangleTwist -1;
    nSmoothScale    4;
    errorReduction  0.75;
    relaxed
    {
        maxNonOrtho     75;
    }
}


Checking initial mesh ...
Checking faces in error :
    non-orthogonality > 65  degrees                        : 0
    faces with face pyramid volume < 1e-13                 : 0
    faces with face-decomposition tet quality < -1         : 0
    faces with concavity > 80  degrees                     : 0
    faces with skewness > 4   (internal) or 20  (boundary) : 0
    faces with interpolation weights (0..1)  < 0.05        : 0
    faces with volume ratio of neighbour cells < 0.01      : 0
    faces with face twist < 0.01                           : 0
    faces on cells with determinant < 0.001                : 0
Detected 0 illegal faces (concave, zero area or negative cell pyramid volume)
Checked initial mesh in = x.xx s


Smoothing patch points ...
Smoothing iteration 0
Found 0 non-manifold point(s).

Scaling iteration 0
Moving mesh using displacement scaling : min:1  max:1
Checking faces in error :
    non-orthogonality > 65  degrees                        : 0
    faces with face pyramid volume < 1e-13                 : 0
    faces with face-decomposition tet quality < -1         : 0
    faces with concavity > 80  degrees                     : 0
    faces with skewness > 4   (internal) or 20  (boundary) : 0
    faces with interpolation weights (0..1)  < 0.05        : 0
    faces with volume ratio of neighbour cells < 0.01      : 0
    faces with face twist < 0.01                           : 0
    faces on cells with determinant < 0.001                : 0
Successfully moved mesh

Smoothing iteration 1
Found 0 non-manifold point(s).

Scaling iteration 0
Moving mesh using displacement scaling : min:1  max:1
Checking faces in error :
    non-orthogonality > 65  degrees                        : 0
    faces with face pyramid volume < 1e-13                 : 0
    faces with face-decomposition tet quality < -1         : 0
    faces with concavity > 80  degrees                     : 0
    faces with skewness > 4   (internal) or 20  (boundary) : 0
    faces with interpolation weights (0..1)  < 0.05        : 0
    faces with volume ratio of neighbour cells < 0.01      : 0
    faces with face twist < 0.01                           : 0
    faces on cells with determinant < 0.001                : 0
Successfully moved mesh

Smoothing iteration 2
Found 0 non-manifold point(s).

Scaling iteration 0
Moving mesh using displacement scaling : min:1  max:1
Checking faces in error :
    non-orthogonality > 65  degrees                        : 0
    faces with face pyramid volume < 1e-13                 : 0
    faces with face-decomposition tet quality < -1         : 0
    faces with concavity > 80  degrees                     : 0
    faces with skewness > 4   (internal) or 20  (boundary) : 0
    faces with interpolation weights (0..1)  < 0.05        : 0
    faces with volume ratio of neighbour cells < 0.01      : 0
    faces with face twist < 0.01                           : 0
    faces on cells with determinant < 0.001                : 0
Successfully moved mesh

Patch points smoothed in = x.xx s



Morph iteration 0
-----------------
Calculating patchDisplacement as distance to nearest surface point ...
Wanted displacement : average:0.00187575389025069 min:1.94188853882521e-06 max:0.00548150548668937
Calculated surface displacement in = x.xx s


Detecting near surfaces ...
Overriding nearest with intersection of close gaps at 0 out of 2498 points.
Overriding displacement on features :
   implicit features    : false
   explicit features    : true
   multi-patch features : false

Detected 0 baffle edges out of 4992 edges.
Initially selected 84 points out of 2498 for reverse attraction.
Selected 236 points out of 2498 for reverse attraction.
Stringing feature edges : changed 0 points
Attraction:
     linear   : max:(0.000687015851378819 -4.5102810375397e-17 -0.00543828204680117) avg:(-1.20218627589926e-07 -0.000239695334552075 -2.19136295207526e-05)
     feature  : max:(-1.31339607639747e-05 -0.00457477511707061 -0.00809337595374866) avg:(3.54370290631583e-12 -9.42224725733209e-05 -7.96931346526435e-05)
Feature analysis : total master points:2498 attraction to :
    feature point   : 0
    feature edge    : 84
    nearest surface : 0
    rest            : 2414

--> FOAM Warning : Displacement (-2.39097450742961e-07 -1.00338132669558e-05 -2.16453033380125e-06) at mesh point 599 coord (0.0504878305904844 0.176121257480143 -0.327148271826166) points through the surrounding patch faces
Smoothing displacement ...
Iteration 0
Iteration 10
Iteration 20
Iteration 30
Iteration 40
Iteration 50
Iteration 60
Iteration 70
Iteration 80
Iteration 90
Displacement smoothed in = x.xx s


Moving mesh ...

Iteration 0
Moving mesh using displacement scaling : min:1  max:1
Checking faces in error :
    non-orthogonality > 65  degrees                        : 0
    faces with face pyramid volume < 1e-13                 : 0
    faces with face-decomposition tet quality < -1         : 0
    faces with concavity > 80  degrees                     : 0
    faces with skewness > 4   (internal) or 20  (boundary) : 0
    faces with interpolation weights (0..1)  < 0.05        : 0
    faces with volume ratio of neighbour cells < 0.01      : 0
    faces with face twist < 0.01                           : 0
    faces on cells with determinant < 0.001                : 0
Successfully moved mesh
Moved mesh in = x.xx s



Morph iteration 1
-----------------
Calculating patchDisplacement as distance to nearest surface point ...
Wanted displacement : average:0.00173848629513086 min:9.08075926765591e-06 max:0.00528497386561744
Calculated surface displacement in = x.xx s


Detecting near surfaces ...
Overriding nearest with intersection of close gaps at 0 out of 2498 points.
Overriding displacement on features :
   implicit features    : false
   explicit features    : true
   multi-patch features : false

Detected 0 baffle edges out of 4992 edges.
Initially selected 84 points out of 2498 for reverse attraction.
Selected 236 points out of 2498 for reverse attraction.
Stringing feature edges : changed 0 points
Attraction:
     linear   : max:(-0.00407214792849978 -0.00336876238530923 0) avg:(-1.19261420402678e-07 -0.000217177483466692 -1.78849569174685e-05)
     feature  : max:(-0.00575679776407294 -0.00615053286371242 -0.00329665983843863) avg:(-8.04586274909712e-13 -9.11812948454554e-05 -7.58098730948224e-05)
Feature analysis : total master points:2498 attraction to :
    feature point   : 0
    feature edge    : 84
    nearest surface : 0
    rest            : 2414

--> FOAM Warning : Displacement (-3.96301608040548e-06 -1.54579080423381e-05 -1.42935147940296e-05) at mesh point 491 coord (0.0504983269522143 0.176111884679234 -0.336839269544033) points through the surrounding patch faces
Smoothing displacement ...
Iteration 0
Iteration 10
Iteration 20
Iteration 30
Iteration 40
Iteration 50
Iteration 60
Iteration 70
Iteration 80
Iteration 90
Displacement smoothed in = x.xx s


Moving mesh ...

Iteration 0
Moving mesh using displacement scaling : min:1  max:1
Checking faces in error :
    non-orthogonality > 65  degrees                        : 0
    faces with face pyramid volume < 1e-13                 : 0
    faces with face-decomposition tet quality < -1         : 0
    faces with concavity > 80  degrees                     : 0
    faces with skewness > 4   (internal) or 20  (boundary) : 0
    faces with interpolation weights (0..1)  < 0.05        : 0
    faces with volume ratio of neighbour cells < 0.01      : 0
    faces with face twist < 0.01                           : 0
    faces on cells with determinant < 0.001                : 0
Successfully moved mesh
Moved mesh in = x.xx s



Morph iteration 2
-----------------
Calculating patchDisplacement as distance to nearest surface point ...
Wanted displacement : average:0.00148048880473519 min:1.11951448302146e-05 max:0.00480506588262193
Calculated surface displacement in = x.xx s


Detecting near surfaces ...
Overriding nearest with intersection of close gaps at 0 out of 2498 points.
Overriding displacement on features :
   implicit features    : false
   explicit features    : true
   multi-patch features : false

Detected 0 baffle edges out of 4992 edges.
Initially selected 84 points out of 2498 for reverse attraction.
Selected 236 points out of 2498 for reverse attraction.
Stringing feature edges : changed 0 points
Attraction:
     linear   : max:(-0.00370237196583334 -0.00306285813627544 0) avg:(-1.06726224383103e-07 -0.00017552709191469 -1.07437194238974e-05)
     feature  : max:(-0.00552616205633831 -0.00590492294580419 -0.00263732580439902) avg:(-1.89799577904973e-12 -8.40696181366174e-05 -6.78379718441108e-05)
Feature analysis : total master points:2498 attraction to :
    feature point   : 0
    feature edge    : 84
    nearest surface : 0
    rest            : 2414

--> FOAM Warning : Displacement (-1.79494955100454e-06 4.60810168663729e-06 -0.000114537022121541) at mesh point 287 coord (0.0500201356674494 0.185015754021471 -0.356183526174733) points through the surrounding patch faces
Smoothing displacement ...
Iteration 0
Iteration 10
Iteration 20
Iteration 30
Iteration 40
Iteration 50
Iteration 60
Iteration 70
Iteration 80
Iteration 90
Displacement smoothed in = x.xx s


Moving mesh ...

Iteration 0
Moving mesh using displacement scaling : min:1  max:1
Checking faces in error :
    non-orthogonality > 65  degrees                        : 0
    faces with face pyramid volume < 1e-13                 : 0
    faces with face-decomposition tet quality < -1         : 0
    faces with concavity > 80  degrees                     : 0
    faces with skewness > 4   (internal) or 20  (boundary) : 0
    faces with interpolation weights (0..1)  < 0.05        : 0
    faces with volume ratio of neighbour cells < 0.01      : 0
    faces with face twist < 0.01                           : 0
    faces on cells with determinant < 0.001                : 0
Successfully moved mesh
Moved mesh in = x.xx s



Morph iteration 3
-----------------
Calculating patchDisplacement as distance to nearest surface point ...
Wanted displacement : average:0.00114735038710938 min:5.57042455014943e-06 max:0.00395975666093028
Calculated surface displacement in = x.xx s


Detecting near surfaces ...
Overriding nearest with intersection of close gaps at 0 out of 2498 points.
Overriding displacement on features :
   implicit features    : false
   explicit features    : true
   multi-patch features : false

Detected 0 baffle edges out of 4992 edges.
Initially selected 84 points out of 2498 for reverse attraction.
Selected 238 points out of 2498 for reverse attraction.
Stringing feature edges : changed 0 points
Attraction:
     linear   : max:(-0.00305104912421107 -0.00252403883794061 0) avg:(-7.93884235603473e-08 -0.00012365095979971 -3.23144663699217e-06)
     feature  : max:(-0.00502798983649474 -0.00537440599305347 -0.00184612546347218) avg:(-1.8641791639841e-12 -7.29835745423711e-05 -5.59449288893924e-05)
Feature analysis : total master points:2498 attraction to :
    feature point   : 0
    feature edge    : 84
    nearest surface : 0
    rest            : 2414

--> FOAM Warning : Displacement (-1.32175067912168e-05 -1.10116410545252e-05 -0.000273124458444041) at mesh point 179 coord (0.0497261939739773 0.184953156957362 -0.365090853425948) points through the surrounding patch faces
Smoothing displacement ...
Iteration 0
Iteration 10
Iteration 20
Iteration 30
Iteration 40
Iteration 50
Iteration 60
Iteration 70
Iteration 80
Iteration 90
Displacement smoothed in = x.xx s


Moving mesh ...

Iteration 0
Moving mesh using displacement scaling : min:1  max:1
Checking faces in error :
    non-orthogonality > 65  degrees                        : 0
    faces with face pyramid volume < 1e-13                 : 0
    faces with face-decomposition tet quality < -1         : 0
    faces with concavity > 80  degrees                     : 0
    faces with skewness > 4   (internal) or 20  (boundary) : 0
    faces with interpolation weights (0..1)  < 0.05        : 0
    faces with volume ratio of neighbour cells < 0.01      : 0
    faces with face twist < 0.01                           : 0
    faces on cells with determinant < 0.001                : 0
Successfully moved mesh
Moved mesh in = x.xx s



Morph iteration 4
-----------------
Calculating patchDisplacement as distance to nearest surface point ...
Wanted displacement : average:0.000806232887079019 min:3.00207511683627e-07 max:0.00277964790357997
Calculated surface displacement in = x.xx s


Detecting near surfaces ...
Overriding nearest with intersection of close gaps at 0 out of 2498 points.
Overriding displacement on features :
   implicit features    : false
   explicit features    : true
   multi-patch features : false

Detected 0 baffle edges out of 4992 edges.
Initially selected 84 points out of 2498 for reverse attraction.
Selected 236 points out of 2498 for reverse attraction.
Stringing feature edges : changed 0 points
Attraction:
     linear   : max:(-0.00214175845336929 -0.00177181071091065 0) avg:(-6.8749877573044e-08 -7.30903395547693e-05 2.82828278856055e-06)
     feature  : max:(-0.00422205957744116 -0.00451614682586723 -0.00110767258477151) avg:(-1.78370530026684e-12 -5.84976369601346e-05 -4.33406102042125e-05)
Feature analysis : total master points:2498 attraction to :
    feature point   : 0
    feature edge    : 84
    nearest surface : 0
    rest            : 2414

--> FOAM Warning : Displacement (-0.00021871462107266 -0.000464591722293601 4.82152389613015e-05) at mesh point 17 coord (-0.0143880787796969 0.146240619072709 -0.375396014525573) points through the surrounding patch faces
Smoothing displacement ...
Iteration 0
Iteration 10
Iteration 20
Iteration 30
Iteration 40
Iteration 50
Iteration 60
Iteration 70
Iteration 80
Iteration 90
Displacement smoothed in = x.xx s


Moving mesh ...

Iteration 0
Moving mesh using displacement scaling : min:1  max:1
Checking faces in error :
    non-orthogonality > 65  degrees                        : 0
    faces with face pyramid volume < 1e-13                 : 0
    faces with face-decomposition tet quality < -1         : 0
    faces with concavity > 80  degrees                     : 0
    faces with skewness > 4   (internal) or 20  (boundary) : 0
    faces with interpolation weights (0..1)  < 0.05        : 0
    faces with volume ratio of neighbour cells < 0.01      : 0
    faces with face twist < 0.01                           : 0
    faces on cells with determinant < 0.001                : 0
Successfully moved mesh
Moved mesh in = x.xx s



Morph iteration 5
-----------------
Calculating patchDisplacement as distance to nearest surface point ...
Wanted displacement : average:0.000509356523278229 min:2.54985632156256e-07 max:0.00149633786386191
Calculated surface displacement in = x.xx s


Detecting near surfaces ...
Overriding nearest with intersection of close gaps at 0 out of 2498 points.
Overriding displacement on features :
   implicit features    : false
   explicit features    : true
   multi-patch features : false

Detected 0 baffle edges out of 4992 edges.
Initially selected 84 points out of 2498 for reverse attraction.
Selected 236 points out of 2498 for reverse attraction.
Stringing feature edges : changed 0 points
Attraction:
     linear   : max:(-0.000140815947264714 0.00144215102496106 0.000373360808101922) avg:(-6.49789648807062e-08 -3.31208264340353e-05 5.25558512886957e-06)
     feature  : max:(-0.00316427973260577 -0.00338967854757444 -0.000553833954789029) avg:(-6.55691374589033e-13 -4.21299258281122e-05 -2.96396320339899e-05)
Feature analysis : total master points:2498 attraction to :
    feature point   : 0
    feature edge    : 84
    nearest surface : 0
    rest            : 2414

--> FOAM Warning : Displacement (-0.000282429290105789 0.000153124929810358 -0.000697389609654021) at mesh point 3889 coord (-0.0144082200020025 -8.87794080488706e-05 -0.0371626176189436) points through the surrounding patch faces
Smoothing displacement ...
Iteration 0
Iteration 10
Iteration 20
Iteration 30
Iteration 40
Iteration 50
Iteration 60
Iteration 70
Iteration 80
Iteration 90
Displacement smoothed in = x.xx s


Moving mesh ...

Iteration 0
Moving mesh using displacement scaling : min:1  max:1
Checking faces in error :
    non-orthogonality > 65  degrees                        : 0
    faces with face pyramid volume < 1e-13                 : 0
    faces with face-decomposition tet quality < -1         : 0
    faces with concavity > 80  degrees                     : 0
    faces with skewness > 4   (internal) or 20  (boundary) : 0
    faces with interpolation weights (0..1)  < 0.05        : 0
    faces with volume ratio of neighbour cells < 0.01      : 0
    faces with face twist < 0.01                           : 0
    faces on cells with determinant < 0.001                : 0
Successfully moved mesh
Moved mesh in = x.xx s



Morph iteration 6
-----------------
Calculating patchDisplacement as distance to nearest surface point ...
Wanted displacement : average:0.000276764944374595 min:1.2154603292751e-06 max:0.000880896305479051
Calculated surface displacement in = x.xx s


Detecting near surfaces ...
Overriding nearest with intersection of close gaps at 0 out of 2498 points.
Overriding displacement on features :
   implicit features    : false
   explicit features    : true
   multi-patch features : false

Detected 0 baffle edges out of 4992 edges.
Initially selected 84 points out of 2498 for reverse attraction.
Selected 236 points out of 2498 for reverse attraction.
Stringing feature edges : changed 0 points
Attraction:
     linear   : max:(-8.2898555663004e-05 0.000848996433567673 0.000219798057919086) avg:(-4.3449813584288e-08 -1.0492838601038e-05 4.07256550937253e-06)
     feature  : max:(-0.00202188498100473 -0.00217308495203378 -0.000221531927462049) avg:(-2.12171021365383e-12 -2.61520969656612e-05 -1.75602189857075e-05)
Feature analysis : total master points:2498 attraction to :
    feature point   : 0
    feature edge    : 84
    nearest surface : 0
    rest            : 2414

--> FOAM Warning : Displacement (-0.000244234701956551 0.000213907648117196 -0.000614268842635504) at mesh point 3889 coord (-0.0146906492921083 6.43455217614872e-05 -0.0378600072285976) points through the surrounding patch faces
Smoothing displacement ...
Iteration 0
Iteration 10
Iteration 20
Iteration 30
Iteration 40
Iteration 50
Iteration 60
Iteration 70
Iteration 80
Iteration 90
Displacement smoothed in = x.xx s


Moving mesh ...

Iteration 0
Moving mesh using displacement scaling : min:1  max:1
Checking faces in error :
    non-orthogonality > 65  degrees                        : 0
    faces with face pyramid volume < 1e-13                 : 0
    faces with face-decomposition tet quality < -1         : 0
    faces with concavity > 80  degrees                     : 0
    faces with skewness > 4   (internal) or 20  (boundary) : 0
    faces with interpolation weights (0..1)  < 0.05        : 0
    faces with volume ratio of neighbour cells < 0.01      : 0
    faces with face twist < 0.01                           : 0
    faces on cells with determinant < 0.001                : 0
Successfully moved mesh
Moved mesh in = x.xx s



Morph iteration 7
-----------------
Calculating patchDisplacement as distance to nearest surface point ...
Wanted displacement : average:0.000132873428158635 min:7.95350667846311e-07 max:0.000425062465850932
Calculated surface displacement in = x.xx s


Detecting near surfaces ...
Overriding nearest with intersection of close gaps at 0 out of 2498 points.
Overriding displacement on features :
   implicit features    : false
   explicit features    : true
   multi-patch features : false

Detected 0 baffle edges out of 4992 edges.
Initially selected 84 points out of 2498 for reverse attraction.
Selected 236 points out of 2498 for reverse attraction.
Stringing feature edges : changed 0 points
Attraction:
     linear   : max:(5.32745342634059e-05 -1.21430643318376e-17 0.000421710711121133) avg:(-2.2687674798702e-08 -1.32315231005638e-06 1.32615690857908e-06)
     feature  : max:(-0.0010267464723788 -0.00111328090531887 -6.64586878783013e-05) avg:(-9.52897459183517e-13 -1.30847106331549e-05 -8.40312829314181e-06)
Feature analysis : total master points:2498 attraction to :
    feature point   : 0
    feature edge    : 84
    nearest surface : 0
    rest            : 2414

--> FOAM Warning : Displacement (-0.00015922461826791 4.51789039383168e-05 -0.000403918078488414) at mesh point 3889 coord (-0.0149348839940649 0.000278253169878683 -0.0384742760712331) points through the surrounding patch faces
Smoothing displacement ...
Iteration 0
Iteration 10
Iteration 20
Iteration 30
Iteration 40
Iteration 50
Iteration 60
Iteration 70
Iteration 80
Iteration 90
Displacement smoothed in = x.xx s


Moving mesh ...

Iteration 0
Moving mesh using displacement scaling : min:1  max:1
Checking faces in error :
    non-orthogonality > 65  degrees                        : 0
    faces with face pyramid volume < 1e-13                 : 0
    faces with face-decomposition tet quality < -1         : 0
    faces with concavity > 80  degrees                     : 0
    faces with skewness > 4   (internal) or 20  (boundary) : 0
    faces with interpolation weights (0..1)  < 0.05        : 0
    faces with volume ratio of neighbour cells < 0.01      : 0
    faces with face twist < 0.01                           : 0
    faces on cells with determinant < 0.001                : 0
Successfully moved mesh
Moved mesh in = x.xx s



Morph iteration 8
-----------------
Calculating patchDisplacement as distance to nearest surface point ...
Wanted displacement : average:5.30697916031012e-05 min:3.85846421799481e-09 max:0.000497885423729731
Calculated surface displacement in = x.xx s


Detecting near surfaces ...
Overriding nearest with intersection of close gaps at 0 out of 2498 points.
Overriding displacement on features :
   implicit features    : false
   explicit features    : true
   multi-patch features : false

Detected 0 baffle edges out of 4992 edges.
Initially selected 84 points out of 2498 for reverse attraction.
Selected 236 points out of 2498 for reverse attraction.
Stringing feature edges : changed 0 points
Attraction:
     linear   : max:(0.000383627837795254 0.000317363478098964 0) avg:(-8.32569634318268e-09 2.67144852133419e-07 -6.99760412438636e-07)
     feature  : max:(-0.000363887445428153 -0.00040729331682729 -1.32914291944286e-05) avg:(-3.50388328239769e-13 -4.70209003713964e-06 -2.90395284791155e-06)
Feature analysis : total master points:2498 attraction to :
    feature point   : 0
    feature edge    : 84
    nearest surface : 0
    rest            : 2414

--> FOAM Warning : Displacement (3.19676243166818e-06 -0.000300762855381679 2.64459212638908e-06) at mesh point 3886 coord (-0.0382780870024703 0.000371312167137869 -0.0320229179789019) points through the surrounding patch faces
Smoothing displacement ...
Iteration 0
Iteration 10
Iteration 20
Iteration 30
Iteration 40
Iteration 50
Iteration 60
Iteration 70
Iteration 80
Iteration 90
Displacement smoothed in = x.xx s


Moving mesh ...

Iteration 0
Moving mesh using displacement scaling : min:1  max:1
Checking faces in error :
    non-orthogonality > 65  degrees                        : 0
    faces with face pyramid volume < 1e-13                 : 0
    faces with face-decomposition tet quality < -1         : 0
    faces with concavity > 80  degrees                     : 0
    faces with skewness > 4   (internal) or 20  (boundary) : 0
    faces with interpolation weights (0..1)  < 0.05        : 0
    faces with volume ratio of neighbour cells < 0.01      : 0
    faces with face twist < 0.01                           : 0
    faces on cells with determinant < 0.001                : 0
Successfully moved mesh
Moved mesh in = x.xx s



Morph iteration 9
-----------------
Calculating patchDisplacement as distance to nearest surface point ...
Wanted displacement : average:1.4835222011727e-05 min:9.32879842307585e-09 max:0.000238373502602172
Calculated surface displacement in = x.xx s


Detecting near surfaces ...
Overriding nearest with intersection of close gaps at 0 out of 2498 points.
Overriding displacement on features :
   implicit features    : false
   explicit features    : true
   multi-patch features : false

Detected 0 baffle edges out of 4992 edges.
Initially selected 84 points out of 2498 for reverse attraction.
Selected 236 points out of 2498 for reverse attraction.
Stringing feature edges : changed 0 points
Attraction:
     linear   : max:(0.000183670192041192 0.000151944684995492 0) avg:(-1.58942191574311e-09 -2.3779679728802e-07 -1.01621097246971e-06)
     feature  : max:(-0.000106759517116375 -1.6600943944826e-06 -8.8345089789027e-05) avg:(-5.41662763009292e-14 -9.65260163570448e-07 -5.0262971753183e-07)
Feature analysis : total master points:2498 attraction to :
    feature point   : 0
    feature edge    : 84
    nearest surface : 0
    rest            : 2414

--> FOAM Warning : Displacement (-0.000106759517116375 -1.6600943944826e-06 -8.8345089789027e-05) at mesh point 3694 coord (-0.00476894137728066 1.66009439447165e-06 -0.0496488742380978) points through the surrounding patch faces
Smoothing displacement ...
Iteration 0
Iteration 10
Iteration 20
Iteration 30
Iteration 40
Iteration 50
Iteration 60
Iteration 70
Iteration 80
Iteration 90
Displacement smoothed in = x.xx s


Moving mesh ...

Iteration 0
Moving mesh using displacement scaling : min:1  max:1
Checking faces in error :
    non-orthogonality > 65  degrees                        : 0
    faces with face pyramid volume < 1e-13                 : 0
    faces with face-decomposition tet quality < -1         : 0
    faces with concavity > 80  degrees                     : 0
    faces with skewness > 4   (internal) or 20  (boundary) : 0
    faces with interpolation weights (0..1)  < 0.05        : 0
    faces with volume ratio of neighbour cells < 0.01      : 0
    faces with face twist < 0.01                           : 0
    faces on cells with determinant < 0.001                : 0
Successfully moved mesh
Moved mesh in = x.xx s


Repatching faces according to nearest surface ...
Repatched 0 faces in = x.xx s


Edge intersection testing:
    Number of edges             : 15033
    Number of edges to retest   : 6802
    Number of intersected edges : 2496
Merging 826 sets of faces.

Edge intersection testing:
    Number of edges             : 14119
    Number of edges to retest   : 3308
    Number of intersected edges : 1582

Undo iteration 0
----------------
Checking faces in error :
    non-orthogonality > 65  degrees                        : 0
    faces with face pyramid volume < 1e-13                 : 0
    faces with face-decomposition tet quality < -1         : 0
    faces with concavity > 80  degrees                     : 0
    faces with skewness > 4   (internal) or 20  (boundary) : 0
    faces with interpolation weights (0..1)  < 0.05        : 0
    faces with volume ratio of neighbour cells < 0.01      : 0
    faces with face twist < 0.01                           : 0
    faces on cells with determinant < 0.001                : 0

Merging all points on surface that
- are used by only two boundary faces and
- make an angle with a cosine of more than 0.866025403784439.

Removing 764 straight edge points ...

Edge intersection testing:
    Number of edges             : 14119
    Number of edges to retest   : 3204
    Number of intersected edges : 1582

Undo iteration 0
----------------
Checking faces in error :
    non-orthogonality > 65  degrees                        : 0
    faces with face pyramid volume < 1e-13                 : 0
    faces with face-decomposition tet quality < -1         : 0
    faces with concavity > 80  degrees                     : 0
    faces with skewness > 4   (internal) or 20  (boundary) : 0
    faces with interpolation weights (0..1)  < 0.05        : 0
    faces with volume ratio of neighbour cells < 0.01      : 0
    faces with face twist < 0.01                           : 0
    faces on cells with determinant < 0.001                : 0

Removing zero-sized patches:
    xMin type patch at position 0
    xMax type patch at position 1
    yMin type patch at position 2
    yMax type patch at position 3
    zMin type patch at position 4
    zMax type patch at position 5

Snapped mesh : cells:4595  faces:14119  points:5070
Cells per refinement level:
    0	4595
Writing mesh to time constant
Wrote mesh in = x.xx s.
Mesh snapped in = x.xx s.
Checking final mesh ...
Checking faces in error :
    non-orthogonality > 65  degrees                        : 0
    faces with face pyramid volume < 1e-13                 : 0
    faces with face-decomposition tet quality < -1         : 0
    faces with concavity > 80  degrees                     : 0
    faces with skewness > 4   (internal) or 20  (boundary) : 0
    faces with interpolation weights (0..1)  < 0.05        : 0
    faces with volume ratio of neighbour cells < 0.01      : 0
    faces with face twist < 0.01                           : 0
    faces on cells with determinant < 0.001                : 0
Finished meshing without any errors
Finished meshing in = x.xx s.
End

/*---------------------------------------------------------------------------*\
  =========                 |
  \\      /  F ield         | OpenFOAM: The Open Source CFD Toolbox
   \\    /   O peration     | Website:  https://openfoam.org
    \\  /    A nd           | Version:  11
     \\/     M anipulation  |
\*---------------------------------------------------------------------------*/
Build  : 11-d5b4d966c3c5
Exec   : foamToSurface -scale 1000 -tri surfaceMesh.vtk
Date   : xxx xx xxxx
Time   : xx:xx:xx
Host   : "LocalMachine"
PID    : xxxxxx
I/O    : uncollated
Case   : /tests/openfoam-paraview/mesh/mesh001
nProcs : 1
sigFpe : Enabling floating point exception trapping (FOAM_SIGFPE).
fileModificationChecking : Monitoring run-time modified files using timeStampMaster (fileModificationSkew 10)
allowSystemOperations : Allowing user-supplied system call operations

// * * * * * * * * * * * * * * * * * * * * * * * * * * * * * * * * * * * * * //
Create time

--> FOAM Warning : 
    From function static Foam::instantList Foam::timeSelector::select0(Foam::Time&, const Foam::argList&)
    in file db/Time/timeSelector.C at line 269
    No time specified or available, selecting 'constant'
Create polyMesh for time = constant


Time [0] = constant
writing "surfaceMesh.vtk" triangulated with scaling 1000


End

mesh exists
checkMesh  | tee log.checkMesh
/*---------------------------------------------------------------------------*\
  =========                 |
  \\      /  F ield         | OpenFOAM: The Open Source CFD Toolbox
   \\    /   O peration     | Website:  https://openfoam.org
    \\  /    A nd           | Version:  11
     \\/     M anipulation  |
\*---------------------------------------------------------------------------*/
Build  : 11-d5b4d966c3c5
Exec   : checkMesh
Date   : xxx xx xxxx
Time   : xx:xx:xx
Host   : "LocalMachine"
PID    : xxxxxx
I/O    : uncollated
Case   : /tests/openfoam-paraview/mesh/mesh001
nProcs : 1
sigFpe : Enabling floating point exception trapping (FOAM_SIGFPE).
fileModificationChecking : Monitoring run-time modified files using timeStampMaster (fileModificationSkew 10)
allowSystemOperations : Allowing user-supplied system call operations

// * * * * * * * * * * * * * * * * * * * * * * * * * * * * * * * * * * * * * //
Create time

--> FOAM Warning : 
    From function static Foam::instantList Foam::timeSelector::select0(Foam::Time&, const Foam::argList&)
    in file db/Time/timeSelector.C at line 269
    No time specified or available, selecting 'constant'
Create polyMesh for time = constant

Time = constant

Mesh stats
    points:           5070
    faces:            14119
    internal faces:   12537
    cells:            4595
    faces per cell:   5.80108813928183
    boundary patches: 3
    point zones:      0
    face zones:       0
    cell zones:       0

Overall number of cells of each type:
    hexahedra:     3769
    prisms:        692
    wedges:        0
    pyramids:      0
    tet wedges:    6
    tetrahedra:    0
    polyhedra:     128
    Breakdown of polyhedra by number of faces:
        faces   number of cells
            4   82
            5   46

Checking topology...
    Boundary definition OK.
    Cell to face addressing OK.
    Point usage OK.
    Upper triangular ordering OK.
    Face vertices OK.
    Number of regions: 1 (OK).

Checking patch topology for multiply connected surfaces...
                   Patch    Faces   Points                  Surface topology
               patch_1_0       86       94  ok (non-closed singly connected)
               patch_2_0       86       92  ok (non-closed singly connected)
               patch_3_0     1410     1514  ok (non-closed singly connected)

Checking geometry...
    Overall domain bounding box (-0.049982044848235 -1.09421833708679e-17 -0.375000149011612) (0.04996475305186 0.224703985614912 0.0497390948363108)
    Mesh has 3 geometric (non-empty/wedge) directions (1 1 1)
    Mesh has 3 solution (non-empty) directions (1 1 1)
    Boundary openness (-1.85767531204949e-16 4.41914893412629e-17 9.16051109290892e-18) OK.
    Max cell openness = 2.44695891729853e-16 OK.
    Max aspect ratio = 3.78337664685257 OK.
    Minimum face area = 3.11776441814767e-05. Maximum face area = 0.000165086542022845.  Face area magnitudes OK.
    Min volume = 1.88312775642703e-07. Max volume = 1.29793583755443e-06.  Total volume = 0.0040157904359554.  Cell volumes OK.
    Mesh non-orthogonality Max: 37.2295052492161 average: 5.73051874540973
    Non-orthogonality check OK.
    Face pyramids OK.
    Max skewness = 0.742949689787492 OK.
    Coupled point location match (average 0) OK.

Mesh OK.

End

make case-report
make[x]: Entering directory '/tests/openfoam-paraview/mesh/mesh001'
starting sofa-tasks.py in verbose mode
    with passed entryPoint:  upstreamLinks
*** update Upstream-Links in  mesh001  ***
start case constructor
with case-json:   /tests/openfoam-paraview/mesh/mesh001/sofa.mesh.FC-EXPORT.json
creating case:         		  >>  mesh001  <<
Skip existing folder      /openfoam-paraview/mesh/mesh001
Skip onlyAtCreation file: sofa.mesh.json
Skip correct link    /openfoam-paraview/mesh/mesh001/makefile 		 with pointer to   /tools/sofa-framework/study-structures/openfoam/mesh/case000/makefile_case_mesh.mk
Unabel to create target >/sofa-project/tools/sofa-framework/tests/openfoam-paraview/mesh/mesh001/.gitignore< since it exists
Skip existing file        /openfoam-paraview/mesh/mesh001/pv.foam
create upstream aspect links for:  	  >>  mesh001  <<
Skip correct link    cad001 		 with pointer to   ../../cad/cad001
Skip correct link    constant/triSurface/Body001_Geometry.stl 		 with pointer to   ../../cad/cad001/stl/Body001_Geometry.stl

*** finished sofa-tasks.py *** 

python3 ../../../tools/sofa-framework/study-structures/openfoam/shared/report.py
no R report is specified in sofa.*.json
make[x]: Leaving directory '/tests/openfoam-paraview/mesh/mesh001'
make[x]: Leaving directory '/tests/openfoam-paraview/mesh/mesh001'
make python-post
make[x]: Entering directory '/tests/openfoam-paraview/mesh/mesh001'
Hello Python-Post-Script
make[x]: Leaving directory '/tests/openfoam-paraview/mesh/mesh001'
make paraview-macros
make[x]: Entering directory '/tests/openfoam-paraview/mesh/mesh001'
python3 ../../../tools/sofa-framework/study-structures/openfoam/shared/python-postprocessing.py
pvbatch ../../../tools/sofa-framework/study-structures/openfoam/shared/paraview-export-all.py
make[x]: Leaving directory '/tests/openfoam-paraview/mesh/mesh001'
make[x]: Leaving directory '/tests/openfoam-paraview/mesh/mesh001'
