make[x]: Entering directory '/tests/openfoam-paraview/run/run001'
starting sofa-tasks.py in verbose mode
    with passed entryPoint:  upstreamLinks
*** update Upstream-Links in  run001  ***
start case constructor
with case-json:   /tests/openfoam-paraview/run/run001/sofa.run.FREECAD.json
creating case:         		  >>  run001  <<
Skip existing folder      /openfoam-paraview/run/run001
Skip onlyAtCreation file: sofa.run.json
Skip correct link    /openfoam-paraview/run/run001/makefile 		 with pointer to   /tools/sofa-framework/study-structures/openfoam/run/case000/makefile_case_run.mk
Unabel to create target >/sofa-project/tools/sofa-framework/tests/openfoam-paraview/run/run001/.gitignore< since it exists
Skip existing file        /openfoam-paraview/run/run001/pv.foam
create upstream aspect links for:  	  >>  run001  <<
Skip correct link    mesh001 		 with pointer to   ../../mesh/mesh001
Creating link to     constant/polyMesh 		 with pointer to   ../../mesh/mesh001/constant/polyMesh
Unabel to find (728) >../../mesh/mesh001/doc/meshReport< for link creation as >doc/meshReport<

*** finished sofa-tasks.py *** 

make python-pre
make[x]: Entering directory '/tests/openfoam-paraview/run/run001'
Hello Python-Pre-Script
make[x]: Leaving directory '/tests/openfoam-paraview/run/run001'
make[x]: Entering directory '/tests/openfoam-paraview/run/run001'
make[x]: Entering directory '/tests/openfoam-paraview/run/run001'
cp    -rf  0.org/*  0
make[x]: Leaving directory '/tests/openfoam-paraview/run/run001'
./Allrun
/*---------------------------------------------------------------------------*\
  =========                 |
  \\      /  F ield         | OpenFOAM: The Open Source CFD Toolbox
   \\    /   O peration     | Website:  https://openfoam.org
    \\  /    A nd           | Version:  11
     \\/     M anipulation  |
\*---------------------------------------------------------------------------*/
Build  : 11-d5b4d966c3c5
Exec   : createPatch -overwrite
Date   : xxx xx xxxx
Time   : xx:xx:xx
Host   : "LocalMachine"
PID    : xxxxxx
I/O    : uncollated
Case   : /tests/openfoam-paraview/run/run001
nProcs : 1
sigFpe : Enabling floating point exception trapping (FOAM_SIGFPE).
fileModificationChecking : Monitoring run-time modified files using timeStampMaster (fileModificationSkew 10)
allowSystemOperations : Allowing user-supplied system call operations

// * * * * * * * * * * * * * * * * * * * * * * * * * * * * * * * * * * * * * //
Create time

Create polyMesh for time = 0

Reading "createPatchDict"

Adding new patch Inlet as patch 3 from 
{
    type            patch;
}

Adding new patch outlet as patch 4 from 
{
    type            patch;
}

Adding new patch wall as patch 5 from 
{
    type            wall;
}

Adding new patch defaultFaces as patch 6 from 
{
    type            patch;
}


Moving faces from patch patch_1_0 to patch 3
Moving faces from patch patch_2_0 to patch 4
Moving faces from patch patch_3_0 to patch 5
--> FOAM Warning : 
    From function const Foam::HashTable<Foam::List<int>, Foam::word>& Foam::polyBoundaryMesh::groupPatchIDs() const
    in file meshes/polyMesh/polyBoundaryMesh/polyBoundaryMesh.C at line 503
    Removing patchGroup 'wall' which clashes with patch 5 of the same name.
--> FOAM Warning : 
    From function Foam::labelHashSet Foam::polyBoundaryMesh::patchSet(const Foam::UList<Foam::wordRe>&, bool, bool) const
    in file meshes/polyMesh/polyBoundaryMesh/polyBoundaryMesh.C at line 834
    Cannot find any patch or group names matching patch_0_0

Doing topology modification to order faces.

Not synchronising points.

Removing patches with no faces in them.

Removing zero-sized patch patch_1_0 type wall at position 0
Removing zero-sized patch patch_2_0 type wall at position 1
Removing zero-sized patch patch_3_0 type wall at position 2
Removing patches.
Writing repatched mesh to 0

End

/*---------------------------------------------------------------------------*\
  =========                 |
  \\      /  F ield         | OpenFOAM: The Open Source CFD Toolbox
   \\    /   O peration     | Website:  https://openfoam.org
    \\  /    A nd           | Version:  11
     \\/     M anipulation  |
\*---------------------------------------------------------------------------*/
Build  : 11-d5b4d966c3c5
Exec   : decomposePar -force
Date   : xxx xx xxxx
Time   : xx:xx:xx
Host   : "LocalMachine"
PID    : xxxxxx
I/O    : uncollated
Case   : /tests/openfoam-paraview/run/run001
nProcs : 1
sigFpe : Enabling floating point exception trapping (FOAM_SIGFPE).
fileModificationChecking : Monitoring run-time modified files using timeStampMaster (fileModificationSkew 10)
allowSystemOperations : Allowing user-supplied system call operations

// * * * * * * * * * * * * * * * * * * * * * * * * * * * * * * * * * * * * * //
Create time

Removing 4 existing processor directories


Decomposing mesh region0

Create mesh

Calculating distribution of cells
Selecting decomposer scotch

Finished decomposition in xxx s

Calculating original mesh data

Distributing cells to processors

Distributing faces to processors

Distributing points to processors

Constructing processor meshes

Processor 0
    Number of cells = 1137
    Number of faces shared with processor 1 = 134
    Number of processor patches = 1
    Number of processor faces = 134
    Number of boundary faces = 451

Processor 1
    Number of cells = 1138
    Number of faces shared with processor 0 = 134
    Number of faces shared with processor 3 = 89
    Number of processor patches = 2
    Number of processor faces = 223
    Number of boundary faces = 345

Processor 2
    Number of cells = 1160
    Number of faces shared with processor 3 = 150
    Number of processor patches = 1
    Number of processor faces = 150
    Number of boundary faces = 431

Processor 3
    Number of cells = 1160
    Number of faces shared with processor 1 = 89
    Number of faces shared with processor 2 = 150
    Number of processor patches = 2
    Number of processor faces = 239
    Number of boundary faces = 355

Number of processor faces = 373
Max number of cells = 1160 (0.97932535% above average 1148.75)
Max number of processor patches = 2 (33.333333% above average 1.5)
Max number of faces between processors = 239 (28.150134% above average 186.5)

Time = 0s

Processor 0: field transfer
Processor 1: field transfer
Processor 2: field transfer
Processor 3: field transfer

End

Mesh renumbering
nproc: 4
exe: /opt/openfoam11/platforms/linux64GccDPInt32Opt/bin/renumberMesh
sol: renumberMesh
at: -overwrite
/*---------------------------------------------------------------------------*\
  =========                 |
  \\      /  F ield         | OpenFOAM: The Open Source CFD Toolbox
   \\    /   O peration     | Website:  https://openfoam.org
    \\  /    A nd           | Version:  11
     \\/     M anipulation  |
\*---------------------------------------------------------------------------*/
Build  : 11-d5b4d966c3c5
Exec   : /opt/openfoam11/platforms/linux64GccDPInt32Opt/bin/renumberMesh -parallel -overwrite
Date   : xxx xx xxxx
Time   : xx:xx:xx
Host   : "LocalMachine"
PID    : xxxxxx
I/O    : uncollated
Case   : /tests/openfoam-paraview/run/run001
nProcs : 4
Slaves : xxx
3
(
"sandy.293366"
"sandy.293367"
"sandy.293368"
)

Pstream initialised with:
    floatTransfer      : false
    nProcsSimpleSum    : 0
    commsType          : nonBlocking
    polling iterations : 0
sigFpe : Enabling floating point exception trapping (FOAM_SIGFPE).
fileModificationChecking : Monitoring run-time modified files using timeStampMaster (fileModificationSkew 10)
allowSystemOperations : Allowing user-supplied system call operations

// * * * * * * * * * * * * * * * * * * * * * * * * * * * * * * * * * * * * * //
Create time

Create mesh for time = 0

Mesh size: 4595
Before renumbering :
    band           : 151
    profile        : 389810

Using default renumberMethod.

Selecting renumberMethod CuthillMcKee

Reading geometric fields

Reading volScalarField p
Reading volScalarField nut
Reading volScalarField k
Reading volScalarField omega
Reading volVectorField U

Renumbering processor cell decomposition map cellProcAddressing
Renumbering processor face decomposition map faceProcAddressing
Renumbering processor point decomposition map pointProcAddressing
After renumbering :
    band           : 118
    profile        : 311053

Writing mesh to "constant"

End

Finalising parallel run
err: 0
initialise flow
nproc: 4
exe: /opt/openfoam11/platforms/linux64GccDPInt32Opt/bin/potentialFoam
sol: potentialFoam
at: -initialiseUBCs -pName p
/*---------------------------------------------------------------------------*\
  =========                 |
  \\      /  F ield         | OpenFOAM: The Open Source CFD Toolbox
   \\    /   O peration     | Website:  https://openfoam.org
    \\  /    A nd           | Version:  11
     \\/     M anipulation  |
\*---------------------------------------------------------------------------*/
Build  : 11-d5b4d966c3c5
Exec   : /opt/openfoam11/platforms/linux64GccDPInt32Opt/bin/potentialFoam -parallel -initialiseUBCs -pName p
Date   : xxx xx xxxx
Time   : xx:xx:xx
Host   : "LocalMachine"
PID    : xxxxxx
I/O    : uncollated
Case   : /tests/openfoam-paraview/run/run001
nProcs : 4
Slaves : xxx
3
(
"sandy.293389"
"sandy.293390"
"sandy.293391"
)

Pstream initialised with:
    floatTransfer      : false
    nProcsSimpleSum    : 0
    commsType          : nonBlocking
    polling iterations : 0
sigFpe : Enabling floating point exception trapping (FOAM_SIGFPE).
fileModificationChecking : Monitoring run-time modified files using timeStampMaster (fileModificationSkew 10)
allowSystemOperations : Allowing user-supplied system call operations

// * * * * * * * * * * * * * * * * * * * * * * * * * * * * * * * * * * * * * //
Create time

Create mesh for time = 0

Reading velocity field U

Constructing pressure field p

Constructing velocity potential field Phi

No MRF models present


Calculating potential flow
GAMG:  Solving for Phi, Initial residual = 1, Final residual = 0.0054870376, No Iterations 10
GAMG:  Solving for Phi, Initial residual = 0.0049006858, Final residual = 4.3337005e-05, No Iterations 4
GAMG:  Solving for Phi, Initial residual = 0.00075760727, Final residual = 6.3773599e-06, No Iterations 3
GAMG:  Solving for Phi, Initial residual = 0.00018628571, Final residual = 9.0969392e-07, No Iterations 4
GAMG:  Solving for Phi, Initial residual = 5.2843301e-05, Final residual = 3.2223008e-07, No Iterations 3
GAMG:  Solving for Phi, Initial residual = 1.7358165e-05, Final residual = 1.2812418e-07, No Iterations 3
GAMG:  Solving for Phi, Initial residual = 5.8737201e-06, Final residual = 9.6059506e-08, No Iterations 2
GAMG:  Solving for Phi, Initial residual = 2.1140567e-06, Final residual = 3.9861239e-08, No Iterations 2
GAMG:  Solving for Phi, Initial residual = 7.7028341e-07, Final residual = 7.3975089e-08, No Iterations 1
Continuity error = 5.5128407e-05
Interpolated velocity error = 0.00016536365
ExecutionTime = x.xx s  ClockTime = x.xx s

End

Finalising parallel run
err: 0
nproc: 4
exe: /opt/openfoam11/bin/simpleFoam
sol: simpleFoam
at: 

simpleFoam has been superseded and replaced by the more general
incompressibleFluid solver module executed by the foamRun application:

    foamRun -solver incompressibleFluid


simpleFoam has been superseded and replaced by the more general
incompressibleFluid solver module executed by the foamRun application:

    foamRun -solver incompressibleFluid


simpleFoam has been superseded and replaced by the more general
incompressibleFluid solver module executed by the foamRun application:

    foamRun -solver incompressibleFluid


simpleFoam has been superseded and replaced by the more general
incompressibleFluid solver module executed by the foamRun application:

    foamRun -solver incompressibleFluid

/*---------------------------------------------------------------------------*\
  =========                 |
  \\      /  F ield         | OpenFOAM: The Open Source CFD Toolbox
   \\    /   O peration     | Website:  https://openfoam.org
    \\  /    A nd           | Version:  11
     \\/     M anipulation  |
\*---------------------------------------------------------------------------*/
Build  : 11-d5b4d966c3c5
Exec   : foamRun -solver incompressibleFluid -parallel
Date   : xxx xx xxxx
Time   : xx:xx:xx
Host   : "LocalMachine"
PID    : xxxxxx
I/O    : uncollated
Case   : /tests/openfoam-paraview/run/run001
nProcs : 4
Slaves : xxx
3
(
"sandy.293434"
"sandy.293436"
"sandy.293439"
)

Pstream initialised with:
    floatTransfer      : false
    nProcsSimpleSum    : 0
    commsType          : nonBlocking
    polling iterations : 0
sigFpe : Enabling floating point exception trapping (FOAM_SIGFPE).
fileModificationChecking : Monitoring run-time modified files using timeStampMaster (fileModificationSkew 10)
allowSystemOperations : Allowing user-supplied system call operations

// * * * * * * * * * * * * * * * * * * * * * * * * * * * * * * * * * * * * * //
Create time

Create mesh for time = 0

Selecting solver incompressibleFluid
Selecting viscosity model Newtonian
Selecting turbulence model type RAS
Selecting RAS turbulence model kOmegaSST
Selecting patchDistMethod meshWave
RAS
{
    RASModel        kOmegaSST;
    turbulence      on;
    printCoeffs     on;
    alphaK1         0.85;
    alphaK2         1;
    alphaOmega1     0.5;
    alphaOmega2     0.856;
    gamma1          0.55555556;
    gamma2          0.44;
    beta1           0.075;
    beta2           0.0828;
    betaStar        0.09;
    a1              0.31;
    b1              1;
    c1              10;
    F3              false;
}

No MRF models present


SIMPLE: Convergence criteria found
        p: tolerance 0.0001
        U: tolerance 0.0001
        "(k|epsilon|omega|f|v2|nuTilda|gammaInt|ReThetat)": tolerance 0.0001


SIMPLE: Operating solver in steady-state mode with 1 outer corrector
SIMPLE: Operating solver in SIMPLE mode



Starting time loop

Time = 1s

smoothSolver:  Solving for Ux, Initial residual = 0.37120585, Final residual = 0.032583384, No Iterations 1
smoothSolver:  Solving for Uy, Initial residual = 0.040369313, Final residual = 0.00073211152, No Iterations 2
smoothSolver:  Solving for Uz, Initial residual = 0.044845994, Final residual = 0.0016393162, No Iterations 2
GAMG:  Solving for p, Initial residual = 1, Final residual = 0.0050174513, No Iterations 6
GAMG:  Solving for p, Initial residual = 0.07024447, Final residual = 0.00047317512, No Iterations 4
GAMG:  Solving for p, Initial residual = 0.012316067, Final residual = 6.5127596e-05, No Iterations 4
GAMG:  Solving for p, Initial residual = 0.0034430836, Final residual = 1.9329232e-05, No Iterations 3
GAMG:  Solving for p, Initial residual = 0.00096953014, Final residual = 6.0943399e-06, No Iterations 3
GAMG:  Solving for p, Initial residual = 0.0003384585, Final residual = 1.9035422e-06, No Iterations 3
time step continuity errors : sum local = 2.1522476e-05, global = -2.2458161e-06, cumulative = -2.2458161e-06
smoothSolver:  Solving for omega, Initial residual = 0.03676915, Final residual = 0.0033306394, No Iterations 2
smoothSolver:  Solving for k, Initial residual = 1, Final residual = 0.097560729, No Iterations 3
ExecutionTime = x.xx s  ClockTime = x.xx s

Time = 2s

smoothSolver:  Solving for Ux, Initial residual = 0.27499857, Final residual = 0.0042440898, No Iterations 2
smoothSolver:  Solving for Uy, Initial residual = 0.013564986, Final residual = 0.00027697916, No Iterations 2
smoothSolver:  Solving for Uz, Initial residual = 0.014152991, Final residual = 0.00053503819, No Iterations 2
GAMG:  Solving for p, Initial residual = 0.53081384, Final residual = 0.0049430849, No Iterations 5
GAMG:  Solving for p, Initial residual = 0.058180746, Final residual = 0.00047629839, No Iterations 4
GAMG:  Solving for p, Initial residual = 0.010497413, Final residual = 6.0140005e-05, No Iterations 4
GAMG:  Solving for p, Initial residual = 0.0030451297, Final residual = 1.8535426e-05, No Iterations 3
GAMG:  Solving for p, Initial residual = 0.00084959745, Final residual = 5.6007884e-06, No Iterations 3
GAMG:  Solving for p, Initial residual = 0.00029306811, Final residual = 1.7870641e-06, No Iterations 3
time step continuity errors : sum local = 2.6033675e-05, global = -2.7315976e-06, cumulative = -4.9774136e-06
smoothSolver:  Solving for omega, Initial residual = 0.024159455, Final residual = 0.0020359694, No Iterations 2
smoothSolver:  Solving for k, Initial residual = 0.24024252, Final residual = 0.018969873, No Iterations 3
ExecutionTime = x.xx s  ClockTime = x.xx s

Time = 3s

smoothSolver:  Solving for Ux, Initial residual = 0.2378236, Final residual = 0.0032740976, No Iterations 2
smoothSolver:  Solving for Uy, Initial residual = 0.01364451, Final residual = 0.00016421722, No Iterations 2
smoothSolver:  Solving for Uz, Initial residual = 0.017784318, Final residual = 0.00032325283, No Iterations 2
GAMG:  Solving for p, Initial residual = 0.28181242, Final residual = 0.0019722137, No Iterations 4
GAMG:  Solving for p, Initial residual = 0.040099708, Final residual = 0.00023206652, No Iterations 4
GAMG:  Solving for p, Initial residual = 0.0074479339, Final residual = 5.563803e-05, No Iterations 3
GAMG:  Solving for p, Initial residual = 0.0021016423, Final residual = 1.2926904e-05, No Iterations 3
GAMG:  Solving for p, Initial residual = 0.00056241566, Final residual = 3.5574079e-06, No Iterations 3
GAMG:  Solving for p, Initial residual = 0.00018433166, Final residual = 1.0061598e-06, No Iterations 3
time step continuity errors : sum local = 1.1326879e-05, global = 1.7024476e-06, cumulative = -3.274966e-06
smoothSolver:  Solving for omega, Initial residual = 0.018484746, Final residual = 0.0015810735, No Iterations 2
smoothSolver:  Solving for k, Initial residual = 0.13195496, Final residual = 0.010011127, No Iterations 3
ExecutionTime = x.xx s  ClockTime = x.xx s

Time = 4s

smoothSolver:  Solving for Ux, Initial residual = 0.15881411, Final residual = 0.0018178281, No Iterations 2
smoothSolver:  Solving for Uy, Initial residual = 0.018942952, Final residual = 0.00027913214, No Iterations 2
smoothSolver:  Solving for Uz, Initial residual = 0.024360042, Final residual = 0.00055489168, No Iterations 2
GAMG:  Solving for p, Initial residual = 0.24251905, Final residual = 0.0012139149, No Iterations 6
GAMG:  Solving for p, Initial residual = 0.036407218, Final residual = 0.00018198409, No Iterations 4
GAMG:  Solving for p, Initial residual = 0.0054642168, Final residual = 2.70613e-05, No Iterations 4
GAMG:  Solving for p, Initial residual = 0.0014114166, Final residual = 8.9849273e-06, No Iterations 3
GAMG:  Solving for p, Initial residual = 0.0003897075, Final residual = 3.0391103e-06, No Iterations 3
GAMG:  Solving for p, Initial residual = 0.00012799787, Final residual = 9.215576e-07, No Iterations 3
time step continuity errors : sum local = 9.2237136e-06, global = 9.2145333e-07, cumulative = -2.3535127e-06
smoothSolver:  Solving for omega, Initial residual = 0.015827382, Final residual = 0.0014308091, No Iterations 2
smoothSolver:  Solving for k, Initial residual = 0.090397216, Final residual = 0.0070432954, No Iterations 3
ExecutionTime = x.xx s  ClockTime = x.xx s

Time = 5s

smoothSolver:  Solving for Ux, Initial residual = 0.096796786, Final residual = 0.0010276613, No Iterations 2
smoothSolver:  Solving for Uy, Initial residual = 0.010578684, Final residual = 0.00019744162, No Iterations 2
smoothSolver:  Solving for Uz, Initial residual = 0.015372609, Final residual = 0.00038354371, No Iterations 2
GAMG:  Solving for p, Initial residual = 0.33449126, Final residual = 0.0018480033, No Iterations 6
GAMG:  Solving for p, Initial residual = 0.046899957, Final residual = 0.00029381702, No Iterations 4
GAMG:  Solving for p, Initial residual = 0.0069245415, Final residual = 4.358946e-05, No Iterations 4
GAMG:  Solving for p, Initial residual = 0.0016005187, Final residual = 1.0493329e-05, No Iterations 3
GAMG:  Solving for p, Initial residual = 0.00043083166, Final residual = 3.9347437e-06, No Iterations 3
GAMG:  Solving for p, Initial residual = 0.00013014128, Final residual = 9.103418e-07, No Iterations 3
time step continuity errors : sum local = 9.3248196e-06, global = 1.1566703e-06, cumulative = -1.1968424e-06
smoothSolver:  Solving for omega, Initial residual = 0.014183816, Final residual = 0.0013689749, No Iterations 2
smoothSolver:  Solving for k, Initial residual = 0.069220778, Final residual = 0.0055312367, No Iterations 3
ExecutionTime = x.xx s  ClockTime = x.xx s

Time = 6s

smoothSolver:  Solving for Ux, Initial residual = 0.094644593, Final residual = 0.00086515572, No Iterations 2
smoothSolver:  Solving for Uy, Initial residual = 0.0077304006, Final residual = 8.8559009e-05, No Iterations 2
smoothSolver:  Solving for Uz, Initial residual = 0.0069885974, Final residual = 0.00013214654, No Iterations 2
GAMG:  Solving for p, Initial residual = 0.3608347, Final residual = 0.0023000192, No Iterations 5
GAMG:  Solving for p, Initial residual = 0.049455078, Final residual = 0.00034549542, No Iterations 4
GAMG:  Solving for p, Initial residual = 0.0078254242, Final residual = 4.2407684e-05, No Iterations 4
GAMG:  Solving for p, Initial residual = 0.0017657707, Final residual = 1.3431998e-05, No Iterations 3
GAMG:  Solving for p, Initial residual = 0.00046452767, Final residual = 2.4466403e-06, No Iterations 4
GAMG:  Solving for p, Initial residual = 0.00014883699, Final residual = 7.0838319e-07, No Iterations 3
time step continuity errors : sum local = 5.5348133e-06, global = 8.3655783e-07, cumulative = -3.6028452e-07
smoothSolver:  Solving for omega, Initial residual = 0.012645302, Final residual = 0.00054650657, No Iterations 3
smoothSolver:  Solving for k, Initial residual = 0.056444851, Final residual = 0.0045622972, No Iterations 3
ExecutionTime = x.xx s  ClockTime = x.xx s

Time = 7s

smoothSolver:  Solving for Ux, Initial residual = 0.081212734, Final residual = 0.00091071979, No Iterations 2
smoothSolver:  Solving for Uy, Initial residual = 0.011179487, Final residual = 0.00011960163, No Iterations 2
smoothSolver:  Solving for Uz, Initial residual = 0.010846007, Final residual = 0.00014715821, No Iterations 2
GAMG:  Solving for p, Initial residual = 0.31339585, Final residual = 0.0016057588, No Iterations 5
GAMG:  Solving for p, Initial residual = 0.025610186, Final residual = 0.0002461505, No Iterations 3
GAMG:  Solving for p, Initial residual = 0.0036285546, Final residual = 2.3535034e-05, No Iterations 4
GAMG:  Solving for p, Initial residual = 0.00091990987, Final residual = 7.6585424e-06, No Iterations 3
GAMG:  Solving for p, Initial residual = 0.00025390724, Final residual = 2.0341878e-06, No Iterations 3
GAMG:  Solving for p, Initial residual = 8.2925601e-05, Final residual = 7.6282078e-07, No Iterations 3
time step continuity errors : sum local = 6.7986803e-06, global = -8.4446064e-07, cumulative = -1.2047452e-06
smoothSolver:  Solving for omega, Initial residual = 0.011264827, Final residual = 0.00051860147, No Iterations 3
smoothSolver:  Solving for k, Initial residual = 0.048014835, Final residual = 0.0038814937, No Iterations 3
ExecutionTime = x.xx s  ClockTime = x.xx s

Time = 8s

smoothSolver:  Solving for Ux, Initial residual = 0.066891322, Final residual = 0.00075988288, No Iterations 2
smoothSolver:  Solving for Uy, Initial residual = 0.0097579605, Final residual = 0.00013311918, No Iterations 2
smoothSolver:  Solving for Uz, Initial residual = 0.0096860125, Final residual = 0.00015724452, No Iterations 2
GAMG:  Solving for p, Initial residual = 0.30152678, Final residual = 0.0028240103, No Iterations 5
GAMG:  Solving for p, Initial residual = 0.025125654, Final residual = 0.00019214722, No Iterations 4
GAMG:  Solving for p, Initial residual = 0.0039289018, Final residual = 2.1759479e-05, No Iterations 4
GAMG:  Solving for p, Initial residual = 0.00092621294, Final residual = 6.6832514e-06, No Iterations 3
GAMG:  Solving for p, Initial residual = 0.00025455344, Final residual = 1.8295235e-06, No Iterations 3
GAMG:  Solving for p, Initial residual = 8.094494e-05, Final residual = 5.9589736e-07, No Iterations 3
time step continuity errors : sum local = 6.3242417e-06, global = -6.5331656e-07, cumulative = -1.8580617e-06
smoothSolver:  Solving for omega, Initial residual = 0.010243058, Final residual = 0.0004995089, No Iterations 3
smoothSolver:  Solving for k, Initial residual = 0.042148602, Final residual = 0.0033756968, No Iterations 3
ExecutionTime = x.xx s  ClockTime = x.xx s

Time = 9s

smoothSolver:  Solving for Ux, Initial residual = 0.074315501, Final residual = 0.00069345601, No Iterations 2
smoothSolver:  Solving for Uy, Initial residual = 0.0065045572, Final residual = 8.8689101e-05, No Iterations 2
smoothSolver:  Solving for Uz, Initial residual = 0.0066490709, Final residual = 0.00011041489, No Iterations 2
GAMG:  Solving for p, Initial residual = 0.2334045, Final residual = 0.0021521884, No Iterations 5
GAMG:  Solving for p, Initial residual = 0.023683152, Final residual = 0.00019534103, No Iterations 4
GAMG:  Solving for p, Initial residual = 0.00367549, Final residual = 2.3934441e-05, No Iterations 4
GAMG:  Solving for p, Initial residual = 0.00089428442, Final residual = 6.1883768e-06, No Iterations 3
GAMG:  Solving for p, Initial residual = 0.00024957451, Final residual = 1.8119035e-06, No Iterations 3
GAMG:  Solving for p, Initial residual = 7.5316312e-05, Final residual = 4.6866656e-07, No Iterations 3
time step continuity errors : sum local = 4.5537914e-06, global = -4.9903026e-07, cumulative = -2.357092e-06
smoothSolver:  Solving for omega, Initial residual = 0.0095679115, Final residual = 0.0004864739, No Iterations 3
smoothSolver:  Solving for k, Initial residual = 0.037981486, Final residual = 0.0029859553, No Iterations 3
ExecutionTime = x.xx s  ClockTime = x.xx s

Time = 10s

smoothSolver:  Solving for Ux, Initial residual = 0.078122563, Final residual = 0.00076826145, No Iterations 2
smoothSolver:  Solving for Uy, Initial residual = 0.006076258, Final residual = 5.9009827e-05, No Iterations 2
smoothSolver:  Solving for Uz, Initial residual = 0.0083450766, Final residual = 8.9797568e-05, No Iterations 2
GAMG:  Solving for p, Initial residual = 0.20174404, Final residual = 0.00096705911, No Iterations 5
GAMG:  Solving for p, Initial residual = 0.020601483, Final residual = 0.00011073849, No Iterations 4
GAMG:  Solving for p, Initial residual = 0.0030849441, Final residual = 1.4283295e-05, No Iterations 4
GAMG:  Solving for p, Initial residual = 0.0007279537, Final residual = 4.002072e-06, No Iterations 3
GAMG:  Solving for p, Initial residual = 0.00020164828, Final residual = 1.5055934e-06, No Iterations 3
GAMG:  Solving for p, Initial residual = 6.0175188e-05, Final residual = 3.5568464e-07, No Iterations 3
time step continuity errors : sum local = 2.6978725e-06, global = 4.480091e-07, cumulative = -1.9090829e-06
smoothSolver:  Solving for omega, Initial residual = 0.0092237364, Final residual = 0.00048181934, No Iterations 3
smoothSolver:  Solving for k, Initial residual = 0.034951697, Final residual = 0.0026742073, No Iterations 3
ExecutionTime = x.xx s  ClockTime = x.xx s

Time = 11s

smoothSolver:  Solving for Ux, Initial residual = 0.064883546, Final residual = 0.00070062927, No Iterations 2
smoothSolver:  Solving for Uy, Initial residual = 0.0050386956, Final residual = 4.6375576e-05, No Iterations 2
smoothSolver:  Solving for Uz, Initial residual = 0.0084317099, Final residual = 9.5526229e-05, No Iterations 2
GAMG:  Solving for p, Initial residual = 0.20594631, Final residual = 0.0010753691, No Iterations 5
GAMG:  Solving for p, Initial residual = 0.021255331, Final residual = 0.00011088132, No Iterations 4
GAMG:  Solving for p, Initial residual = 0.0033186272, Final residual = 2.5201022e-05, No Iterations 3
GAMG:  Solving for p, Initial residual = 0.00074938019, Final residual = 6.5681919e-06, No Iterations 3
GAMG:  Solving for p, Initial residual = 0.00022299783, Final residual = 1.7098366e-06, No Iterations 3
GAMG:  Solving for p, Initial residual = 6.3230801e-05, Final residual = 4.7623449e-07, No Iterations 3
time step continuity errors : sum local = 3.5997634e-06, global = 4.1546431e-07, cumulative = -1.4936186e-06
smoothSolver:  Solving for omega, Initial residual = 0.0091178781, Final residual = 0.00048462772, No Iterations 3
smoothSolver:  Solving for k, Initial residual = 0.032610797, Final residual = 0.002409359, No Iterations 3
ExecutionTime = x.xx s  ClockTime = x.xx s

Time = 12s

smoothSolver:  Solving for Ux, Initial residual = 0.050883999, Final residual = 0.00054962208, No Iterations 2
smoothSolver:  Solving for Uy, Initial residual = 0.0037801444, Final residual = 3.4122254e-05, No Iterations 2
smoothSolver:  Solving for Uz, Initial residual = 0.0059171976, Final residual = 7.4551812e-05, No Iterations 2
GAMG:  Solving for p, Initial residual = 0.20937088, Final residual = 0.0014398098, No Iterations 5
GAMG:  Solving for p, Initial residual = 0.023188999, Final residual = 0.00012804058, No Iterations 4
GAMG:  Solving for p, Initial residual = 0.0033693827, Final residual = 3.219684e-05, No Iterations 3
GAMG:  Solving for p, Initial residual = 0.00079110089, Final residual = 7.5489436e-06, No Iterations 3
GAMG:  Solving for p, Initial residual = 0.0002154345, Final residual = 1.7292564e-06, No Iterations 3
GAMG:  Solving for p, Initial residual = 6.4642165e-05, Final residual = 4.4423598e-07, No Iterations 3
time step continuity errors : sum local = 3.2147778e-06, global = 3.7147396e-07, cumulative = -1.1221446e-06
smoothSolver:  Solving for omega, Initial residual = 0.0091395545, Final residual = 0.00049084595, No Iterations 3
smoothSolver:  Solving for k, Initial residual = 0.030690129, Final residual = 0.0021738837, No Iterations 3
ExecutionTime = x.xx s  ClockTime = x.xx s

Time = 13s

smoothSolver:  Solving for Ux, Initial residual = 0.044270726, Final residual = 0.00043098223, No Iterations 2
smoothSolver:  Solving for Uy, Initial residual = 0.0041184467, Final residual = 3.3502118e-05, No Iterations 2
smoothSolver:  Solving for Uz, Initial residual = 0.0045052553, Final residual = 6.8773867e-05, No Iterations 2
GAMG:  Solving for p, Initial residual = 0.20169656, Final residual = 0.0015724777, No Iterations 5
GAMG:  Solving for p, Initial residual = 0.018914107, Final residual = 0.00013141315, No Iterations 4
GAMG:  Solving for p, Initial residual = 0.0026035002, Final residual = 1.6747032e-05, No Iterations 4
GAMG:  Solving for p, Initial residual = 0.00059763569, Final residual = 3.5210982e-06, No Iterations 3
GAMG:  Solving for p, Initial residual = 0.00015819257, Final residual = 1.2948829e-06, No Iterations 3
GAMG:  Solving for p, Initial residual = 5.0694867e-05, Final residual = 2.6620707e-07, No Iterations 3
time step continuity errors : sum local = 1.9123194e-06, global = -1.4022506e-07, cumulative = -1.2623697e-06
smoothSolver:  Solving for omega, Initial residual = 0.0090976584, Final residual = 0.00048677754, No Iterations 3
smoothSolver:  Solving for k, Initial residual = 0.029048817, Final residual = 0.0019570133, No Iterations 3
ExecutionTime = x.xx s  ClockTime = x.xx s

Time = 14s

smoothSolver:  Solving for Ux, Initial residual = 0.042706297, Final residual = 0.00050006172, No Iterations 2
smoothSolver:  Solving for Uy, Initial residual = 0.0044689642, Final residual = 4.3080698e-05, No Iterations 2
smoothSolver:  Solving for Uz, Initial residual = 0.0050094078, Final residual = 7.8954031e-05, No Iterations 2
GAMG:  Solving for p, Initial residual = 0.19008053, Final residual = 0.0017923968, No Iterations 4
GAMG:  Solving for p, Initial residual = 0.014014003, Final residual = 0.0001169567, No Iterations 4
GAMG:  Solving for p, Initial residual = 0.0018861818, Final residual = 1.0287957e-05, No Iterations 4
GAMG:  Solving for p, Initial residual = 0.00044770965, Final residual = 3.0116323e-06, No Iterations 3
GAMG:  Solving for p, Initial residual = 0.00012282526, Final residual = 6.6513941e-07, No Iterations 3
GAMG:  Solving for p, Initial residual = 3.9684945e-05, Final residual = 3.837169e-07, No Iterations 2
time step continuity errors : sum local = 3.0966283e-06, global = -6.0673744e-07, cumulative = -1.8691071e-06
smoothSolver:  Solving for omega, Initial residual = 0.0089378969, Final residual = 0.00047150882, No Iterations 3
smoothSolver:  Solving for k, Initial residual = 0.027679129, Final residual = 0.0017603458, No Iterations 3
ExecutionTime = x.xx s  ClockTime = x.xx s

Time = 15s

smoothSolver:  Solving for Ux, Initial residual = 0.043915471, Final residual = 0.00055117553, No Iterations 2
smoothSolver:  Solving for Uy, Initial residual = 0.0039731124, Final residual = 5.2828392e-05, No Iterations 2
smoothSolver:  Solving for Uz, Initial residual = 0.00506641, Final residual = 8.3317484e-05, No Iterations 2
GAMG:  Solving for p, Initial residual = 0.17774476, Final residual = 0.00085168796, No Iterations 5
GAMG:  Solving for p, Initial residual = 0.012851652, Final residual = 6.2770212e-05, No Iterations 4
GAMG:  Solving for p, Initial residual = 0.0017477189, Final residual = 1.3939514e-05, No Iterations 3
GAMG:  Solving for p, Initial residual = 0.00037754241, Final residual = 3.159253e-06, No Iterations 3
GAMG:  Solving for p, Initial residual = 0.00010631576, Final residual = 7.0898008e-07, No Iterations 3
GAMG:  Solving for p, Initial residual = 3.1706456e-05, Final residual = 1.9236897e-07, No Iterations 3
time step continuity errors : sum local = 1.5741122e-06, global = -1.7825783e-07, cumulative = -2.0473649e-06
smoothSolver:  Solving for omega, Initial residual = 0.0087047092, Final residual = 0.00044806949, No Iterations 3
smoothSolver:  Solving for k, Initial residual = 0.026558414, Final residual = 0.0015826621, No Iterations 3
ExecutionTime = x.xx s  ClockTime = x.xx s

Time = 16s

smoothSolver:  Solving for Ux, Initial residual = 0.043221048, Final residual = 0.0004849903, No Iterations 2
smoothSolver:  Solving for Uy, Initial residual = 0.0032463326, Final residual = 4.5391818e-05, No Iterations 2
smoothSolver:  Solving for Uz, Initial residual = 0.0048124735, Final residual = 7.7379056e-05, No Iterations 2
GAMG:  Solving for p, Initial residual = 0.15949192, Final residual = 0.0010743696, No Iterations 5
GAMG:  Solving for p, Initial residual = 0.012066525, Final residual = 8.2103413e-05, No Iterations 4
GAMG:  Solving for p, Initial residual = 0.0014908952, Final residual = 8.802331e-06, No Iterations 4
GAMG:  Solving for p, Initial residual = 0.00032287995, Final residual = 1.9482303e-06, No Iterations 3
GAMG:  Solving for p, Initial residual = 8.6271061e-05, Final residual = 5.3147147e-07, No Iterations 3
GAMG:  Solving for p, Initial residual = 2.4945745e-05, Final residual = 1.3128295e-07, No Iterations 3
time step continuity errors : sum local = 9.9977765e-07, global = 1.7386244e-07, cumulative = -1.8735025e-06
smoothSolver:  Solving for omega, Initial residual = 0.0085012053, Final residual = 0.00042387327, No Iterations 3
smoothSolver:  Solving for k, Initial residual = 0.025675006, Final residual = 0.0014258026, No Iterations 3
ExecutionTime = x.xx s  ClockTime = x.xx s

Time = 17s

smoothSolver:  Solving for Ux, Initial residual = 0.039014873, Final residual = 0.0038031854, No Iterations 1
smoothSolver:  Solving for Uy, Initial residual = 0.0027522703, Final residual = 2.9225784e-05, No Iterations 2
smoothSolver:  Solving for Uz, Initial residual = 0.0047941762, Final residual = 6.9145419e-05, No Iterations 2
GAMG:  Solving for p, Initial residual = 0.14358433, Final residual = 0.00079907423, No Iterations 5
GAMG:  Solving for p, Initial residual = 0.011750378, Final residual = 6.6635145e-05, No Iterations 4
GAMG:  Solving for p, Initial residual = 0.001310912, Final residual = 6.8077909e-06, No Iterations 4
GAMG:  Solving for p, Initial residual = 0.00027847044, Final residual = 1.7413961e-06, No Iterations 3
GAMG:  Solving for p, Initial residual = 6.9033585e-05, Final residual = 3.9425764e-07, No Iterations 3
GAMG:  Solving for p, Initial residual = 2.0127742e-05, Final residual = 1.0550488e-07, No Iterations 3
time step continuity errors : sum local = 7.2721892e-07, global = 1.0759001e-07, cumulative = -1.7659125e-06
smoothSolver:  Solving for omega, Initial residual = 0.0083074003, Final residual = 0.00040079615, No Iterations 3
smoothSolver:  Solving for k, Initial residual = 0.024928193, Final residual = 0.001286651, No Iterations 3
ExecutionTime = x.xx s  ClockTime = x.xx s

Time = 18s

smoothSolver:  Solving for Ux, Initial residual = 0.032843095, Final residual = 0.003269072, No Iterations 1
smoothSolver:  Solving for Uy, Initial residual = 0.0024207361, Final residual = 2.8598026e-05, No Iterations 2
smoothSolver:  Solving for Uz, Initial residual = 0.0043843435, Final residual = 5.5494537e-05, No Iterations 2
GAMG:  Solving for p, Initial residual = 0.13448236, Final residual = 0.0012023184, No Iterations 4
GAMG:  Solving for p, Initial residual = 0.010575206, Final residual = 9.8382756e-05, No Iterations 4
GAMG:  Solving for p, Initial residual = 0.0013222749, Final residual = 9.0645062e-06, No Iterations 4
GAMG:  Solving for p, Initial residual = 0.00028938776, Final residual = 2.3346255e-06, No Iterations 3
GAMG:  Solving for p, Initial residual = 7.5321033e-05, Final residual = 6.1081894e-07, No Iterations 3
GAMG:  Solving for p, Initial residual = 2.4149711e-05, Final residual = 1.7001467e-07, No Iterations 3
time step continuity errors : sum local = 1.1018151e-06, global = 1.2916028e-07, cumulative = -1.6367522e-06
smoothSolver:  Solving for omega, Initial residual = 0.0081673276, Final residual = 0.00038277978, No Iterations 3
smoothSolver:  Solving for k, Initial residual = 0.024289899, Final residual = 0.0011654336, No Iterations 3
ExecutionTime = x.xx s  ClockTime = x.xx s

Time = 19s

smoothSolver:  Solving for Ux, Initial residual = 0.027270542, Final residual = 0.002575764, No Iterations 1
smoothSolver:  Solving for Uy, Initial residual = 0.0023321542, Final residual = 3.2532171e-05, No Iterations 2
smoothSolver:  Solving for Uz, Initial residual = 0.0037088419, Final residual = 0.00033346496, No Iterations 1
GAMG:  Solving for p, Initial residual = 0.12862101, Final residual = 0.0012481069, No Iterations 4
GAMG:  Solving for p, Initial residual = 0.010427588, Final residual = 9.2643641e-05, No Iterations 4
GAMG:  Solving for p, Initial residual = 0.0013674205, Final residual = 8.4212614e-06, No Iterations 4
GAMG:  Solving for p, Initial residual = 0.00032587549, Final residual = 2.1380965e-06, No Iterations 3
GAMG:  Solving for p, Initial residual = 8.734767e-05, Final residual = 6.36947e-07, No Iterations 3
GAMG:  Solving for p, Initial residual = 2.8461686e-05, Final residual = 1.7490731e-07, No Iterations 3
time step continuity errors : sum local = 1.1492245e-06, global = 4.2048735e-08, cumulative = -1.5947035e-06
smoothSolver:  Solving for omega, Initial residual = 0.0080896656, Final residual = 0.00036954632, No Iterations 3
smoothSolver:  Solving for k, Initial residual = 0.023703665, Final residual = 0.001059942, No Iterations 3
ExecutionTime = x.xx s  ClockTime = x.xx s

Time = 20s

smoothSolver:  Solving for Ux, Initial residual = 0.024341211, Final residual = 0.002168174, No Iterations 1
smoothSolver:  Solving for Uy, Initial residual = 0.0022399759, Final residual = 2.8684989e-05, No Iterations 2
smoothSolver:  Solving for Uz, Initial residual = 0.0034728236, Final residual = 0.00033814656, No Iterations 1
GAMG:  Solving for p, Initial residual = 0.12590933, Final residual = 0.00060613574, No Iterations 5
GAMG:  Solving for p, Initial residual = 0.0090975443, Final residual = 4.2972137e-05, No Iterations 4
GAMG:  Solving for p, Initial residual = 0.0011506034, Final residual = 9.2612509e-06, No Iterations 3
GAMG:  Solving for p, Initial residual = 0.0002618844, Final residual = 2.1274052e-06, No Iterations 3
GAMG:  Solving for p, Initial residual = 6.9598491e-05, Final residual = 5.0439094e-07, No Iterations 3
GAMG:  Solving for p, Initial residual = 2.2164286e-05, Final residual = 1.5039849e-07, No Iterations 3
time step continuity errors : sum local = 1.0226807e-06, global = -1.4677848e-07, cumulative = -1.7414819e-06
smoothSolver:  Solving for omega, Initial residual = 0.008017415, Final residual = 0.00035664495, No Iterations 3
smoothSolver:  Solving for k, Initial residual = 0.023142631, Final residual = 0.00096990301, No Iterations 3
ExecutionTime = x.xx s  ClockTime = x.xx s

Time = 21s

smoothSolver:  Solving for Ux, Initial residual = 0.025312152, Final residual = 0.00030075661, No Iterations 2
smoothSolver:  Solving for Uy, Initial residual = 0.0020468525, Final residual = 0.00018702746, No Iterations 1
smoothSolver:  Solving for Uz, Initial residual = 0.0035830578, Final residual = 4.0666379e-05, No Iterations 2
GAMG:  Solving for p, Initial residual = 0.11536804, Final residual = 0.0010877034, No Iterations 4
GAMG:  Solving for p, Initial residual = 0.0076889882, Final residual = 7.4027231e-05, No Iterations 4
GAMG:  Solving for p, Initial residual = 0.00094348958, Final residual = 6.6323276e-06, No Iterations 4
GAMG:  Solving for p, Initial residual = 0.00019924295, Final residual = 1.5887429e-06, No Iterations 3
GAMG:  Solving for p, Initial residual = 5.2947818e-05, Final residual = 3.6140063e-07, No Iterations 3
GAMG:  Solving for p, Initial residual = 1.5458953e-05, Final residual = 1.0442783e-07, No Iterations 3
time step continuity errors : sum local = 7.2320991e-07, global = -8.8241152e-08, cumulative = -1.8297231e-06
smoothSolver:  Solving for omega, Initial residual = 0.0078387342, Final residual = 0.00033996416, No Iterations 3
smoothSolver:  Solving for k, Initial residual = 0.022601706, Final residual = 0.00089447623, No Iterations 3
ExecutionTime = x.xx s  ClockTime = x.xx s

Time = 22s

smoothSolver:  Solving for Ux, Initial residual = 0.025238355, Final residual = 0.00037764181, No Iterations 2
smoothSolver:  Solving for Uy, Initial residual = 0.0018260032, Final residual = 2.0101377e-05, No Iterations 2
smoothSolver:  Solving for Uz, Initial residual = 0.0035628304, Final residual = 3.973601e-05, No Iterations 2
GAMG:  Solving for p, Initial residual = 0.10803338, Final residual = 0.00090281924, No Iterations 4
GAMG:  Solving for p, Initial residual = 0.0068151401, Final residual = 5.6696827e-05, No Iterations 4
GAMG:  Solving for p, Initial residual = 0.00087213896, Final residual = 4.7340597e-06, No Iterations 4
GAMG:  Solving for p, Initial residual = 0.00018878383, Final residual = 1.2478684e-06, No Iterations 3
GAMG:  Solving for p, Initial residual = 5.0079691e-05, Final residual = 3.2991522e-07, No Iterations 3
GAMG:  Solving for p, Initial residual = 1.4913587e-05, Final residual = 9.1976764e-08, No Iterations 3
time step continuity errors : sum local = 6.3274411e-07, global = -6.4774562e-08, cumulative = -1.8944977e-06
smoothSolver:  Solving for omega, Initial residual = 0.0075943375, Final residual = 0.00031977996, No Iterations 3
smoothSolver:  Solving for k, Initial residual = 0.022070912, Final residual = 0.0021910921, No Iterations 2
ExecutionTime = x.xx s  ClockTime = x.xx s

Time = 23s

smoothSolver:  Solving for Ux, Initial residual = 0.023486279, Final residual = 0.00035583041, No Iterations 2
smoothSolver:  Solving for Uy, Initial residual = 0.0016906825, Final residual = 2.4762805e-05, No Iterations 2
smoothSolver:  Solving for Uz, Initial residual = 0.0034300398, Final residual = 3.9937015e-05, No Iterations 2
GAMG:  Solving for p, Initial residual = 0.099677223, Final residual = 0.00046110671, No Iterations 5
GAMG:  Solving for p, Initial residual = 0.006512999, Final residual = 3.4463502e-05, No Iterations 4
GAMG:  Solving for p, Initial residual = 0.00081712421, Final residual = 6.2806408e-06, No Iterations 3
GAMG:  Solving for p, Initial residual = 0.00017657015, Final residual = 1.4129023e-06, No Iterations 3
GAMG:  Solving for p, Initial residual = 4.473868e-05, Final residual = 3.246702e-07, No Iterations 3
GAMG:  Solving for p, Initial residual = 1.3228446e-05, Final residual = 8.7630494e-08, No Iterations 3
time step continuity errors : sum local = 5.9031374e-07, global = 8.8913945e-08, cumulative = -1.8055837e-06
smoothSolver:  Solving for omega, Initial residual = 0.0072867885, Final residual = 0.00072141765, No Iterations 2
smoothSolver:  Solving for k, Initial residual = 0.021603933, Final residual = 0.0020748927, No Iterations 2
ExecutionTime = x.xx s  ClockTime = x.xx s

Time = 24s

smoothSolver:  Solving for Ux, Initial residual = 0.020863589, Final residual = 0.00027578168, No Iterations 2
smoothSolver:  Solving for Uy, Initial residual = 0.0016604906, Final residual = 2.2031937e-05, No Iterations 2
smoothSolver:  Solving for Uz, Initial residual = 0.003224909, Final residual = 4.0371526e-05, No Iterations 2
GAMG:  Solving for p, Initial residual = 0.092235731, Final residual = 0.00091769928, No Iterations 4
GAMG:  Solving for p, Initial residual = 0.0058646814, Final residual = 2.9376902e-05, No Iterations 5
GAMG:  Solving for p, Initial residual = 0.0007555864, Final residual = 6.2381384e-06, No Iterations 3
GAMG:  Solving for p, Initial residual = 0.00016691174, Final residual = 1.4092665e-06, No Iterations 3
GAMG:  Solving for p, Initial residual = 4.480325e-05, Final residual = 3.0823892e-07, No Iterations 3
GAMG:  Solving for p, Initial residual = 1.3378077e-05, Final residual = 7.90635e-08, No Iterations 3
time step continuity errors : sum local = 5.2361894e-07, global = 7.0245016e-08, cumulative = -1.7353387e-06
smoothSolver:  Solving for omega, Initial residual = 0.0070313432, Final residual = 0.00068651133, No Iterations 2
smoothSolver:  Solving for k, Initial residual = 0.021167917, Final residual = 0.0019845727, No Iterations 2
ExecutionTime = x.xx s  ClockTime = x.xx s

Time = 25s

smoothSolver:  Solving for Ux, Initial residual = 0.018072435, Final residual = 0.0017843651, No Iterations 1
smoothSolver:  Solving for Uy, Initial residual = 0.0016142165, Final residual = 0.00015500058, No Iterations 1
smoothSolver:  Solving for Uz, Initial residual = 0.0029900818, Final residual = 3.9137798e-05, No Iterations 2
GAMG:  Solving for p, Initial residual = 0.085058991, Final residual = 0.00070025069, No Iterations 4
GAMG:  Solving for p, Initial residual = 0.0050827997, Final residual = 5.0051815e-05, No Iterations 4
GAMG:  Solving for p, Initial residual = 0.00062052248, Final residual = 4.8903726e-06, No Iterations 4
GAMG:  Solving for p, Initial residual = 0.00013257679, Final residual = 1.097637e-06, No Iterations 3
GAMG:  Solving for p, Initial residual = 3.5069247e-05, Final residual = 2.5322672e-07, No Iterations 3
GAMG:  Solving for p, Initial residual = 1.0259219e-05, Final residual = 6.3324345e-08, No Iterations 3
time step continuity errors : sum local = 4.159454e-07, global = 5.2276499e-08, cumulative = -1.6830622e-06
smoothSolver:  Solving for omega, Initial residual = 0.0068031062, Final residual = 0.00065734477, No Iterations 2
smoothSolver:  Solving for k, Initial residual = 0.020743651, Final residual = 0.0019148528, No Iterations 2
ExecutionTime = x.xx s  ClockTime = x.xx s

Time = 26s

smoothSolver:  Solving for Ux, Initial residual = 0.016318673, Final residual = 0.0015532247, No Iterations 1
smoothSolver:  Solving for Uy, Initial residual = 0.0015168008, Final residual = 1.9809376e-05, No Iterations 2
smoothSolver:  Solving for Uz, Initial residual = 0.0027887264, Final residual = 3.5402089e-05, No Iterations 2
GAMG:  Solving for p, Initial residual = 0.079959803, Final residual = 0.00050980124, No Iterations 4
GAMG:  Solving for p, Initial residual = 0.0046246672, Final residual = 2.9035157e-05, No Iterations 4
GAMG:  Solving for p, Initial residual = 0.00058519161, Final residual = 5.4071487e-06, No Iterations 3
GAMG:  Solving for p, Initial residual = 0.0001302275, Final residual = 1.1050281e-06, No Iterations 3
GAMG:  Solving for p, Initial residual = 3.5448314e-05, Final residual = 2.5907137e-07, No Iterations 3
GAMG:  Solving for p, Initial residual = 1.0609257e-05, Final residual = 6.4295125e-08, No Iterations 3
time step continuity errors : sum local = 4.2426644e-07, global = 2.5343419e-08, cumulative = -1.6577188e-06
smoothSolver:  Solving for omega, Initial residual = 0.0065979282, Final residual = 0.0006344303, No Iterations 2
smoothSolver:  Solving for k, Initial residual = 0.020350821, Final residual = 0.0018644523, No Iterations 2
ExecutionTime = x.xx s  ClockTime = x.xx s

Time = 27s

smoothSolver:  Solving for Ux, Initial residual = 0.01587108, Final residual = 0.0014015434, No Iterations 1
smoothSolver:  Solving for Uy, Initial residual = 0.0013530129, Final residual = 2.0468494e-05, No Iterations 2
smoothSolver:  Solving for Uz, Initial residual = 0.0026840449, Final residual = 0.00025244994, No Iterations 1
GAMG:  Solving for p, Initial residual = 0.072351637, Final residual = 0.00057325127, No Iterations 4
GAMG:  Solving for p, Initial residual = 0.004117897, Final residual = 3.8845151e-05, No Iterations 4
GAMG:  Solving for p, Initial residual = 0.00050869808, Final residual = 3.769198e-06, No Iterations 4
GAMG:  Solving for p, Initial residual = 0.0001124972, Final residual = 8.7020021e-07, No Iterations 3
GAMG:  Solving for p, Initial residual = 3.04621e-05, Final residual = 2.0353897e-07, No Iterations 3
GAMG:  Solving for p, Initial residual = 9.1657182e-06, Final residual = 5.9650525e-08, No Iterations 3
time step continuity errors : sum local = 3.9352146e-07, global = -5.0981331e-08, cumulative = -1.7087001e-06
smoothSolver:  Solving for omega, Initial residual = 0.0063773117, Final residual = 0.00061245632, No Iterations 2
smoothSolver:  Solving for k, Initial residual = 0.019953947, Final residual = 0.0018285984, No Iterations 2
ExecutionTime = x.xx s  ClockTime = x.xx s

Time = 28s

smoothSolver:  Solving for Ux, Initial residual = 0.01565301, Final residual = 0.0012390721, No Iterations 1
smoothSolver:  Solving for Uy, Initial residual = 0.001204134, Final residual = 1.800372e-05, No Iterations 2
smoothSolver:  Solving for Uz, Initial residual = 0.0026163771, Final residual = 0.00022840434, No Iterations 1
GAMG:  Solving for p, Initial residual = 0.064649571, Final residual = 0.00062204196, No Iterations 4
GAMG:  Solving for p, Initial residual = 0.0038613212, Final residual = 2.0632098e-05, No Iterations 5
GAMG:  Solving for p, Initial residual = 0.00048436761, Final residual = 4.0892535e-06, No Iterations 3
GAMG:  Solving for p, Initial residual = 0.00010415974, Final residual = 9.2402838e-07, No Iterations 3
GAMG:  Solving for p, Initial residual = 2.803864e-05, Final residual = 2.0202348e-07, No Iterations 3
GAMG:  Solving for p, Initial residual = 8.3228201e-06, Final residual = 5.6931832e-08, No Iterations 3
time step continuity errors : sum local = 3.7434442e-07, global = -4.5872718e-08, cumulative = -1.7545728e-06
smoothSolver:  Solving for omega, Initial residual = 0.0061435477, Final residual = 0.00058953381, No Iterations 2
smoothSolver:  Solving for k, Initial residual = 0.019565765, Final residual = 0.0018051381, No Iterations 2
ExecutionTime = x.xx s  ClockTime = x.xx s

Time = 29s

smoothSolver:  Solving for Ux, Initial residual = 0.015121114, Final residual = 0.0013155501, No Iterations 1
smoothSolver:  Solving for Uy, Initial residual = 0.0011165236, Final residual = 1.3974448e-05, No Iterations 2
smoothSolver:  Solving for Uz, Initial residual = 0.0025097415, Final residual = 0.00020877535, No Iterations 1
GAMG:  Solving for p, Initial residual = 0.058862328, Final residual = 0.00055835709, No Iterations 4
GAMG:  Solving for p, Initial residual = 0.0035361936, Final residual = 1.7560992e-05, No Iterations 5
GAMG:  Solving for p, Initial residual = 0.00050080401, Final residual = 3.4236045e-06, No Iterations 3
GAMG:  Solving for p, Initial residual = 0.00010964284, Final residual = 8.2448885e-07, No Iterations 3
GAMG:  Solving for p, Initial residual = 3.0260449e-05, Final residual = 1.796286e-07, No Iterations 3
GAMG:  Solving for p, Initial residual = 8.6338589e-06, Final residual = 5.0302329e-08, No Iterations 3
time step continuity errors : sum local = 3.281602e-07, global = -3.6171629e-08, cumulative = -1.7907445e-06
smoothSolver:  Solving for omega, Initial residual = 0.0058962727, Final residual = 0.0005647009, No Iterations 2
smoothSolver:  Solving for k, Initial residual = 0.019184763, Final residual = 0.0017916875, No Iterations 2
ExecutionTime = x.xx s  ClockTime = x.xx s

Time = 30s

smoothSolver:  Solving for Ux, Initial residual = 0.014049802, Final residual = 0.00016317827, No Iterations 2
smoothSolver:  Solving for Uy, Initial residual = 0.0010950585, Final residual = 1.2650885e-05, No Iterations 2
smoothSolver:  Solving for Uz, Initial residual = 0.0023601014, Final residual = 0.000193233, No Iterations 1
GAMG:  Solving for p, Initial residual = 0.054858305, Final residual = 0.00044602341, No Iterations 4
GAMG:  Solving for p, Initial residual = 0.003309134, Final residual = 2.7779574e-05, No Iterations 4
GAMG:  Solving for p, Initial residual = 0.0004845423, Final residual = 4.619367e-06, No Iterations 3
GAMG:  Solving for p, Initial residual = 0.00011172583, Final residual = 9.8381834e-07, No Iterations 3
GAMG:  Solving for p, Initial residual = 3.1332675e-05, Final residual = 1.8535917e-07, No Iterations 3
GAMG:  Solving for p, Initial residual = 8.9583423e-06, Final residual = 4.6087997e-08, No Iterations 3
time step continuity errors : sum local = 2.9849289e-07, global = -5.1400606e-09, cumulative = -1.7958845e-06
smoothSolver:  Solving for omega, Initial residual = 0.0056408112, Final residual = 0.00053903395, No Iterations 2
smoothSolver:  Solving for k, Initial residual = 0.018805152, Final residual = 0.0017863616, No Iterations 2
ExecutionTime = x.xx s  ClockTime = x.xx s

Time = 31s

smoothSolver:  Solving for Ux, Initial residual = 0.012478176, Final residual = 0.00016564454, No Iterations 2
smoothSolver:  Solving for Uy, Initial residual = 0.0010863008, Final residual = 1.5427532e-05, No Iterations 2
smoothSolver:  Solving for Uz, Initial residual = 0.0022259673, Final residual = 0.00019442318, No Iterations 1
GAMG:  Solving for p, Initial residual = 0.051371135, Final residual = 0.0004755474, No Iterations 4
GAMG:  Solving for p, Initial residual = 0.0030501279, Final residual = 2.9823253e-05, No Iterations 4
GAMG:  Solving for p, Initial residual = 0.00042833331, Final residual = 2.3102299e-06, No Iterations 4
GAMG:  Solving for p, Initial residual = 9.8298136e-05, Final residual = 5.6704646e-07, No Iterations 3
GAMG:  Solving for p, Initial residual = 2.5983312e-05, Final residual = 1.3300391e-07, No Iterations 3
GAMG:  Solving for p, Initial residual = 7.6024506e-06, Final residual = 7.0779409e-08, No Iterations 2
time step continuity errors : sum local = 4.5626015e-07, global = 8.7944609e-08, cumulative = -1.7079399e-06
smoothSolver:  Solving for omega, Initial residual = 0.0053905401, Final residual = 0.00051408443, No Iterations 2
smoothSolver:  Solving for k, Initial residual = 0.018446137, Final residual = 0.0017886213, No Iterations 2
ExecutionTime = x.xx s  ClockTime = x.xx s

Time = 32s

smoothSolver:  Solving for Ux, Initial residual = 0.010997707, Final residual = 0.00014085842, No Iterations 2
smoothSolver:  Solving for Uy, Initial residual = 0.0010400618, Final residual = 1.5458656e-05, No Iterations 2
smoothSolver:  Solving for Uz, Initial residual = 0.002125256, Final residual = 0.00020567238, No Iterations 1
GAMG:  Solving for p, Initial residual = 0.047337555, Final residual = 0.00042568242, No Iterations 4
GAMG:  Solving for p, Initial residual = 0.0028426549, Final residual = 2.7894437e-05, No Iterations 4
GAMG:  Solving for p, Initial residual = 0.00039148425, Final residual = 2.2296714e-06, No Iterations 4
GAMG:  Solving for p, Initial residual = 9.1210835e-05, Final residual = 5.004605e-07, No Iterations 3
GAMG:  Solving for p, Initial residual = 2.4613313e-05, Final residual = 1.307534e-07, No Iterations 3
GAMG:  Solving for p, Initial residual = 7.4056126e-06, Final residual = 6.3858206e-08, No Iterations 2
time step continuity errors : sum local = 4.1123089e-07, global = 7.5915047e-08, cumulative = -1.6320249e-06
smoothSolver:  Solving for omega, Initial residual = 0.0051481874, Final residual = 0.00049102233, No Iterations 2
smoothSolver:  Solving for k, Initial residual = 0.018109011, Final residual = 0.0017970792, No Iterations 2
ExecutionTime = x.xx s  ClockTime = x.xx s

Time = 33s

smoothSolver:  Solving for Ux, Initial residual = 0.010127716, Final residual = 0.00089221179, No Iterations 1
smoothSolver:  Solving for Uy, Initial residual = 0.00094994595, Final residual = 1.3246996e-05, No Iterations 2
smoothSolver:  Solving for Uz, Initial residual = 0.0020304667, Final residual = 2.4997475e-05, No Iterations 2
GAMG:  Solving for p, Initial residual = 0.044386893, Final residual = 0.00029714791, No Iterations 4
GAMG:  Solving for p, Initial residual = 0.0026109026, Final residual = 1.3429384e-05, No Iterations 4
GAMG:  Solving for p, Initial residual = 0.00032764672, Final residual = 2.0220755e-06, No Iterations 3
GAMG:  Solving for p, Initial residual = 6.5561128e-05, Final residual = 5.3054168e-07, No Iterations 3
GAMG:  Solving for p, Initial residual = 1.7026823e-05, Final residual = 1.1559299e-07, No Iterations 3
GAMG:  Solving for p, Initial residual = 4.5897208e-06, Final residual = 3.0854525e-08, No Iterations 3
time step continuity errors : sum local = 1.9921109e-07, global = -2.4387543e-08, cumulative = -1.6564124e-06
smoothSolver:  Solving for omega, Initial residual = 0.0049187726, Final residual = 0.00047038227, No Iterations 2
smoothSolver:  Solving for k, Initial residual = 0.017798174, Final residual = 0.00076179308, No Iterations 3
ExecutionTime = x.xx s  ClockTime = x.xx s

Time = 34s

smoothSolver:  Solving for Ux, Initial residual = 0.009908596, Final residual = 0.00079610081, No Iterations 1
smoothSolver:  Solving for Uy, Initial residual = 0.00083944186, Final residual = 1.1223376e-05, No Iterations 2
smoothSolver:  Solving for Uz, Initial residual = 0.0019309426, Final residual = 2.6094977e-05, No Iterations 2
GAMG:  Solving for p, Initial residual = 0.0409032, Final residual = 0.00020487944, No Iterations 4
GAMG:  Solving for p, Initial residual = 0.0023920659, Final residual = 1.756341e-05, No Iterations 4
GAMG:  Solving for p, Initial residual = 0.00028968072, Final residual = 1.7158475e-06, No Iterations 4
GAMG:  Solving for p, Initial residual = 5.863756e-05, Final residual = 4.4484586e-07, No Iterations 3
GAMG:  Solving for p, Initial residual = 1.4663808e-05, Final residual = 9.3966244e-08, No Iterations 3
GAMG:  Solving for p, Initial residual = 3.9535942e-06, Final residual = 2.6228908e-08, No Iterations 3
time step continuity errors : sum local = 1.6906775e-07, global = -1.8535594e-08, cumulative = -1.674948e-06
smoothSolver:  Solving for omega, Initial residual = 0.004700343, Final residual = 0.00045197748, No Iterations 2
smoothSolver:  Solving for k, Initial residual = 0.017499403, Final residual = 0.00077059582, No Iterations 3
ExecutionTime = x.xx s  ClockTime = x.xx s

Time = 35s

smoothSolver:  Solving for Ux, Initial residual = 0.009779353, Final residual = 0.0007617001, No Iterations 1
smoothSolver:  Solving for Uy, Initial residual = 0.00076226691, Final residual = 1.0196492e-05, No Iterations 2
smoothSolver:  Solving for Uz, Initial residual = 0.0018207118, Final residual = 2.5720047e-05, No Iterations 2
GAMG:  Solving for p, Initial residual = 0.036781321, Final residual = 0.0003008766, No Iterations 4
GAMG:  Solving for p, Initial residual = 0.0022032472, Final residual = 2.15572e-05, No Iterations 4
GAMG:  Solving for p, Initial residual = 0.0002643285, Final residual = 1.9356178e-06, No Iterations 4
GAMG:  Solving for p, Initial residual = 5.293554e-05, Final residual = 4.7530243e-07, No Iterations 3
GAMG:  Solving for p, Initial residual = 1.339938e-05, Final residual = 1.0486584e-07, No Iterations 3
GAMG:  Solving for p, Initial residual = 3.632079e-06, Final residual = 2.8143502e-08, No Iterations 3
time step continuity errors : sum local = 1.8003597e-07, global = -1.8905731e-08, cumulative = -1.6938537e-06
smoothSolver:  Solving for omega, Initial residual = 0.0044809812, Final residual = 0.00043355305, No Iterations 2
smoothSolver:  Solving for k, Initial residual = 0.017194863, Final residual = 0.00077805028, No Iterations 3
ExecutionTime = x.xx s  ClockTime = x.xx s

Time = 36s

smoothSolver:  Solving for Ux, Initial residual = 0.0093944314, Final residual = 0.00072331514, No Iterations 1
smoothSolver:  Solving for Uy, Initial residual = 0.00072883278, Final residual = 9.0930401e-06, No Iterations 2
smoothSolver:  Solving for Uz, Initial residual = 0.0017093631, Final residual = 2.4081584e-05, No Iterations 2
GAMG:  Solving for p, Initial residual = 0.033707825, Final residual = 0.00033161419, No Iterations 4
GAMG:  Solving for p, Initial residual = 0.0020431974, Final residual = 1.0684459e-05, No Iterations 5
GAMG:  Solving for p, Initial residual = 0.00027150708, Final residual = 2.0270299e-06, No Iterations 3
GAMG:  Solving for p, Initial residual = 5.4863099e-05, Final residual = 4.879833e-07, No Iterations 3
GAMG:  Solving for p, Initial residual = 1.4123895e-05, Final residual = 1.0437344e-07, No Iterations 3
GAMG:  Solving for p, Initial residual = 3.67459e-06, Final residual = 2.757885e-08, No Iterations 3
time step continuity errors : sum local = 1.7495737e-07, global = -1.7486806e-08, cumulative = -1.7113405e-06
smoothSolver:  Solving for omega, Initial residual = 0.0042578384, Final residual = 0.00041453526, No Iterations 2
smoothSolver:  Solving for k, Initial residual = 0.016890615, Final residual = 0.00078368212, No Iterations 3
ExecutionTime = x.xx s  ClockTime = x.xx s

Time = 37s

smoothSolver:  Solving for Ux, Initial residual = 0.0086441162, Final residual = 0.0007153473, No Iterations 1
smoothSolver:  Solving for Uy, Initial residual = 0.00067980065, Final residual = 6.3222562e-05, No Iterations 1
smoothSolver:  Solving for Uz, Initial residual = 0.0016098147, Final residual = 0.00015687225, No Iterations 1
GAMG:  Solving for p, Initial residual = 0.030801281, Final residual = 0.00029965205, No Iterations 4
GAMG:  Solving for p, Initial residual = 0.0019416652, Final residual = 9.4113806e-06, No Iterations 5
GAMG:  Solving for p, Initial residual = 0.00025216918, Final residual = 1.7195358e-06, No Iterations 3
GAMG:  Solving for p, Initial residual = 5.1530133e-05, Final residual = 4.0833908e-07, No Iterations 3
GAMG:  Solving for p, Initial residual = 1.265844e-05, Final residual = 8.57692e-08, No Iterations 3
GAMG:  Solving for p, Initial residual = 3.3356457e-06, Final residual = 2.3110368e-08, No Iterations 3
time step continuity errors : sum local = 1.4598681e-07, global = -1.1533555e-08, cumulative = -1.7228741e-06
smoothSolver:  Solving for omega, Initial residual = 0.0040292391, Final residual = 0.00039436298, No Iterations 2
smoothSolver:  Solving for k, Initial residual = 0.016581675, Final residual = 0.00078671961, No Iterations 3
ExecutionTime = x.xx s  ClockTime = x.xx s

Time = 38s

smoothSolver:  Solving for Ux, Initial residual = 0.0078978102, Final residual = 0.00076077537, No Iterations 1
smoothSolver:  Solving for Uy, Initial residual = 0.00062902086, Final residual = 5.6317888e-05, No Iterations 1
smoothSolver:  Solving for Uz, Initial residual = 0.00153589, Final residual = 0.00014240154, No Iterations 1
GAMG:  Solving for p, Initial residual = 0.028457074, Final residual = 0.00026061236, No Iterations 4
GAMG:  Solving for p, Initial residual = 0.0017552825, Final residual = 1.4527077e-05, No Iterations 4
GAMG:  Solving for p, Initial residual = 0.00022567123, Final residual = 1.1761146e-06, No Iterations 4
GAMG:  Solving for p, Initial residual = 4.5302808e-05, Final residual = 3.0393211e-07, No Iterations 3
GAMG:  Solving for p, Initial residual = 1.1099215e-05, Final residual = 6.9319568e-08, No Iterations 3
GAMG:  Solving for p, Initial residual = 2.9682636e-06, Final residual = 1.9673992e-08, No Iterations 3
time step continuity errors : sum local = 1.2436772e-07, global = -1.0688881e-08, cumulative = -1.733563e-06
smoothSolver:  Solving for omega, Initial residual = 0.003807169, Final residual = 0.00037397194, No Iterations 2
smoothSolver:  Solving for k, Initial residual = 0.016281034, Final residual = 0.00078719534, No Iterations 3
ExecutionTime = x.xx s  ClockTime = x.xx s

Time = 39s

smoothSolver:  Solving for Ux, Initial residual = 0.0070600495, Final residual = 9.173712e-05, No Iterations 2
smoothSolver:  Solving for Uy, Initial residual = 0.00059437499, Final residual = 5.0107202e-05, No Iterations 1
smoothSolver:  Solving for Uz, Initial residual = 0.0014705225, Final residual = 0.00013161347, No Iterations 1
GAMG:  Solving for p, Initial residual = 0.026053723, Final residual = 0.0001993254, No Iterations 4
GAMG:  Solving for p, Initial residual = 0.0015200123, Final residual = 9.1420223e-06, No Iterations 4
GAMG:  Solving for p, Initial residual = 0.0001964153, Final residual = 1.8420262e-06, No Iterations 3
GAMG:  Solving for p, Initial residual = 3.9622656e-05, Final residual = 2.1280238e-07, No Iterations 4
GAMG:  Solving for p, Initial residual = 9.632157e-06, Final residual = 5.2144088e-08, No Iterations 3
GAMG:  Solving for p, Initial residual = 2.5555415e-06, Final residual = 1.4381723e-08, No Iterations 3
time step continuity errors : sum local = 9.1133625e-08, global = -9.7356919e-09, cumulative = -1.7432987e-06
smoothSolver:  Solving for omega, Initial residual = 0.0035947622, Final residual = 0.00035367422, No Iterations 2
smoothSolver:  Solving for k, Initial residual = 0.015989216, Final residual = 0.00078478193, No Iterations 3
ExecutionTime = x.xx s  ClockTime = x.xx s

Time = 40s

smoothSolver:  Solving for Ux, Initial residual = 0.0062821593, Final residual = 8.4953501e-05, No Iterations 2
smoothSolver:  Solving for Uy, Initial residual = 0.0005632144, Final residual = 4.6181471e-05, No Iterations 1
smoothSolver:  Solving for Uz, Initial residual = 0.0014046486, Final residual = 0.00012717209, No Iterations 1
GAMG:  Solving for p, Initial residual = 0.023698289, Final residual = 0.0001213168, No Iterations 4
GAMG:  Solving for p, Initial residual = 0.0013862205, Final residual = 8.9550857e-06, No Iterations 4
GAMG:  Solving for p, Initial residual = 0.00017483937, Final residual = 9.5593022e-07, No Iterations 4
GAMG:  Solving for p, Initial residual = 3.5547899e-05, Final residual = 2.2681784e-07, No Iterations 3
GAMG:  Solving for p, Initial residual = 8.6745781e-06, Final residual = 5.7266518e-08, No Iterations 3
GAMG:  Solving for p, Initial residual = 2.3235012e-06, Final residual = 1.4310058e-08, No Iterations 3
time step continuity errors : sum local = 9.0770334e-08, global = -1.0677141e-08, cumulative = -1.7539758e-06
smoothSolver:  Solving for omega, Initial residual = 0.0033916502, Final residual = 0.00033355541, No Iterations 2
smoothSolver:  Solving for k, Initial residual = 0.015703043, Final residual = 0.00077924329, No Iterations 3
ExecutionTime = x.xx s  ClockTime = x.xx s

Time = 41s

smoothSolver:  Solving for Ux, Initial residual = 0.0056544606, Final residual = 0.00056293462, No Iterations 1
smoothSolver:  Solving for Uy, Initial residual = 0.00051891646, Final residual = 4.4608126e-05, No Iterations 1
smoothSolver:  Solving for Uz, Initial residual = 0.0013331508, Final residual = 0.00012702905, No Iterations 1
GAMG:  Solving for p, Initial residual = 0.021060704, Final residual = 0.00010570033, No Iterations 4
GAMG:  Solving for p, Initial residual = 0.0013552406, Final residual = 1.0084819e-05, No Iterations 4
GAMG:  Solving for p, Initial residual = 0.00016749784, Final residual = 1.0191079e-06, No Iterations 4
GAMG:  Solving for p, Initial residual = 3.4673924e-05, Final residual = 2.3140593e-07, No Iterations 3
GAMG:  Solving for p, Initial residual = 8.3266544e-06, Final residual = 5.5914291e-08, No Iterations 3
GAMG:  Solving for p, Initial residual = 2.2558298e-06, Final residual = 1.3720837e-08, No Iterations 3
time step continuity errors : sum local = 8.6822261e-08, global = -1.0440361e-08, cumulative = -1.7644162e-06
smoothSolver:  Solving for omega, Initial residual = 0.0031945224, Final residual = 0.00031351237, No Iterations 2
smoothSolver:  Solving for k, Initial residual = 0.015416201, Final residual = 0.00077045062, No Iterations 3
ExecutionTime = x.xx s  ClockTime = x.xx s

Time = 42s

smoothSolver:  Solving for Ux, Initial residual = 0.0053052114, Final residual = 0.00051569496, No Iterations 1
smoothSolver:  Solving for Uy, Initial residual = 0.00046868963, Final residual = 4.2672215e-05, No Iterations 1
smoothSolver:  Solving for Uz, Initial residual = 0.0012577818, Final residual = 1.6644545e-05, No Iterations 2
GAMG:  Solving for p, Initial residual = 0.019187607, Final residual = 0.00016562212, No Iterations 4
GAMG:  Solving for p, Initial residual = 0.0013085004, Final residual = 1.2071497e-05, No Iterations 4
GAMG:  Solving for p, Initial residual = 0.00016674979, Final residual = 1.1552444e-06, No Iterations 4
GAMG:  Solving for p, Initial residual = 3.5488848e-05, Final residual = 2.5633797e-07, No Iterations 3
GAMG:  Solving for p, Initial residual = 8.7704697e-06, Final residual = 5.9804056e-08, No Iterations 3
GAMG:  Solving for p, Initial residual = 2.3498743e-06, Final residual = 1.4269773e-08, No Iterations 3
time step continuity errors : sum local = 8.9844312e-08, global = -1.0796403e-08, cumulative = -1.7752126e-06
smoothSolver:  Solving for omega, Initial residual = 0.0030070282, Final residual = 0.0002938072, No Iterations 2
smoothSolver:  Solving for k, Initial residual = 0.015133519, Final residual = 0.0007586788, No Iterations 3
ExecutionTime = x.xx s  ClockTime = x.xx s

Time = 43s

smoothSolver:  Solving for Ux, Initial residual = 0.0051953646, Final residual = 0.00047072876, No Iterations 1
smoothSolver:  Solving for Uy, Initial residual = 0.00043389415, Final residual = 4.0319477e-05, No Iterations 1
smoothSolver:  Solving for Uz, Initial residual = 0.0011789937, Final residual = 1.674241e-05, No Iterations 2
GAMG:  Solving for p, Initial residual = 0.017860247, Final residual = 8.8575297e-05, No Iterations 5
GAMG:  Solving for p, Initial residual = 0.0011554077, Final residual = 7.0184236e-06, No Iterations 4
GAMG:  Solving for p, Initial residual = 0.00015457004, Final residual = 1.3950332e-06, No Iterations 3
GAMG:  Solving for p, Initial residual = 3.3907548e-05, Final residual = 2.998596e-07, No Iterations 3
GAMG:  Solving for p, Initial residual = 8.5643375e-06, Final residual = 6.7013154e-08, No Iterations 3
GAMG:  Solving for p, Initial residual = 2.2716294e-06, Final residual = 1.598208e-08, No Iterations 3
time step continuity errors : sum local = 9.9919989e-08, global = -1.1035558e-08, cumulative = -1.7862481e-06
smoothSolver:  Solving for omega, Initial residual = 0.0028260007, Final residual = 0.00027425653, No Iterations 2
smoothSolver:  Solving for k, Initial residual = 0.014844101, Final residual = 0.00074381461, No Iterations 3
ExecutionTime = x.xx s  ClockTime = x.xx s

Time = 44s

smoothSolver:  Solving for Ux, Initial residual = 0.0053175242, Final residual = 0.00043754655, No Iterations 1
smoothSolver:  Solving for Uy, Initial residual = 0.00042224188, Final residual = 3.9318978e-05, No Iterations 1
smoothSolver:  Solving for Uz, Initial residual = 0.0011058576, Final residual = 1.6429709e-05, No Iterations 2
GAMG:  Solving for p, Initial residual = 0.016409903, Final residual = 8.1517744e-05, No Iterations 5
GAMG:  Solving for p, Initial residual = 0.00099198197, Final residual = 6.7127616e-06, No Iterations 4
GAMG:  Solving for p, Initial residual = 0.00013756113, Final residual = 1.2339953e-06, No Iterations 3
GAMG:  Solving for p, Initial residual = 3.026961e-05, Final residual = 2.622137e-07, No Iterations 3
GAMG:  Solving for p, Initial residual = 7.7654267e-06, Final residual = 5.909899e-08, No Iterations 3
GAMG:  Solving for p, Initial residual = 2.0398542e-06, Final residual = 1.4511815e-08, No Iterations 3
time step continuity errors : sum local = 9.0179637e-08, global = -8.5296427e-09, cumulative = -1.7947778e-06
smoothSolver:  Solving for omega, Initial residual = 0.0026515958, Final residual = 0.00025499225, No Iterations 2
smoothSolver:  Solving for k, Initial residual = 0.014549091, Final residual = 0.00072613882, No Iterations 3
ExecutionTime = x.xx s  ClockTime = x.xx s

Time = 45s

smoothSolver:  Solving for Ux, Initial residual = 0.0051362567, Final residual = 0.0004073345, No Iterations 1
smoothSolver:  Solving for Uy, Initial residual = 0.00040437902, Final residual = 3.7145698e-05, No Iterations 1
smoothSolver:  Solving for Uz, Initial residual = 0.0010410288, Final residual = 1.5490783e-05, No Iterations 2
GAMG:  Solving for p, Initial residual = 0.015016438, Final residual = 0.00014682477, No Iterations 4
GAMG:  Solving for p, Initial residual = 0.00095414406, Final residual = 4.8451698e-06, No Iterations 5
GAMG:  Solving for p, Initial residual = 0.00013324207, Final residual = 9.603119e-07, No Iterations 3
GAMG:  Solving for p, Initial residual = 2.9083465e-05, Final residual = 2.0771512e-07, No Iterations 3
GAMG:  Solving for p, Initial residual = 7.4362172e-06, Final residual = 4.8157706e-08, No Iterations 3
GAMG:  Solving for p, Initial residual = 1.9563193e-06, Final residual = 1.2527209e-08, No Iterations 3
time step continuity errors : sum local = 7.7704759e-08, global = -5.6607345e-09, cumulative = -1.8004385e-06
smoothSolver:  Solving for omega, Initial residual = 0.0024841916, Final residual = 0.00023608915, No Iterations 2
smoothSolver:  Solving for k, Initial residual = 0.014249867, Final residual = 0.00070600122, No Iterations 3
ExecutionTime = x.xx s  ClockTime = x.xx s

Time = 46s

smoothSolver:  Solving for Ux, Initial residual = 0.0046531374, Final residual = 0.00037862614, No Iterations 1
smoothSolver:  Solving for Uy, Initial residual = 0.00037203908, Final residual = 3.4061854e-05, No Iterations 1
smoothSolver:  Solving for Uz, Initial residual = 0.00098494258, Final residual = 1.4079441e-05, No Iterations 2
GAMG:  Solving for p, Initial residual = 0.013579569, Final residual = 0.0001241485, No Iterations 4
GAMG:  Solving for p, Initial residual = 0.0008973464, Final residual = 8.6090431e-06, No Iterations 4
GAMG:  Solving for p, Initial residual = 0.00011439439, Final residual = 7.4407107e-07, No Iterations 4
GAMG:  Solving for p, Initial residual = 2.4109237e-05, Final residual = 1.7736748e-07, No Iterations 3
GAMG:  Solving for p, Initial residual = 5.8328966e-06, Final residual = 4.3066844e-08, No Iterations 3
GAMG:  Solving for p, Initial residual = 1.5820984e-06, Final residual = 1.10505e-08, No Iterations 3
time step continuity errors : sum local = 6.8660402e-08, global = -6.7762811e-09, cumulative = -1.8072148e-06
smoothSolver:  Solving for omega, Initial residual = 0.0023238955, Final residual = 0.00021769171, No Iterations 2
smoothSolver:  Solving for k, Initial residual = 0.013946798, Final residual = 0.00068368027, No Iterations 3
ExecutionTime = x.xx s  ClockTime = x.xx s

Time = 47s

smoothSolver:  Solving for Ux, Initial residual = 0.004083129, Final residual = 0.00034514775, No Iterations 1
smoothSolver:  Solving for Uy, Initial residual = 0.00034397967, Final residual = 3.1355345e-05, No Iterations 1
smoothSolver:  Solving for Uz, Initial residual = 0.00093640313, Final residual = 9.1082303e-05, No Iterations 1
GAMG:  Solving for p, Initial residual = 0.012432663, Final residual = 8.1027049e-05, No Iterations 4
GAMG:  Solving for p, Initial residual = 0.0008383027, Final residual = 6.6543242e-06, No Iterations 4
GAMG:  Solving for p, Initial residual = 0.00010823141, Final residual = 6.7359129e-07, No Iterations 4
GAMG:  Solving for p, Initial residual = 2.281015e-05, Final residual = 1.5811374e-07, No Iterations 3
GAMG:  Solving for p, Initial residual = 5.4550049e-06, Final residual = 3.9330259e-08, No Iterations 3
GAMG:  Solving for p, Initial residual = 1.4682418e-06, Final residual = 9.5626256e-09, No Iterations 3
time step continuity errors : sum local = 5.9539276e-08, global = -6.7881936e-09, cumulative = -1.814003e-06
smoothSolver:  Solving for omega, Initial residual = 0.0021703803, Final residual = 0.00019980865, No Iterations 2
smoothSolver:  Solving for k, Initial residual = 0.013636305, Final residual = 0.00065934454, No Iterations 3
ExecutionTime = x.xx s  ClockTime = x.xx s

Time = 48s

smoothSolver:  Solving for Ux, Initial residual = 0.0035870092, Final residual = 0.00031108547, No Iterations 1
smoothSolver:  Solving for Uy, Initial residual = 0.00031879723, Final residual = 2.8087174e-05, No Iterations 1
smoothSolver:  Solving for Uz, Initial residual = 0.00089380843, Final residual = 8.3552058e-05, No Iterations 1
GAMG:  Solving for p, Initial residual = 0.011713419, Final residual = 6.4251389e-05, No Iterations 4
GAMG:  Solving for p, Initial residual = 0.00075405076, Final residual = 6.0369321e-06, No Iterations 4
GAMG:  Solving for p, Initial residual = 0.00010138536, Final residual = 6.2232804e-07, No Iterations 4
GAMG:  Solving for p, Initial residual = 2.2661954e-05, Final residual = 1.4436796e-07, No Iterations 3
GAMG:  Solving for p, Initial residual = 5.7387298e-06, Final residual = 3.8724249e-08, No Iterations 3
GAMG:  Solving for p, Initial residual = 1.5866405e-06, Final residual = 9.3330617e-09, No Iterations 3
time step continuity errors : sum local = 5.8185967e-08, global = -6.6472119e-09, cumulative = -1.8206502e-06
smoothSolver:  Solving for omega, Initial residual = 0.002026054, Final residual = 0.00018268048, No Iterations 2
smoothSolver:  Solving for k, Initial residual = 0.013324024, Final residual = 0.00063335839, No Iterations 3
ExecutionTime = x.xx s  ClockTime = x.xx s

Time = 49s

smoothSolver:  Solving for Ux, Initial residual = 0.0032790386, Final residual = 0.00028693577, No Iterations 1
smoothSolver:  Solving for Uy, Initial residual = 0.00029741751, Final residual = 2.5749168e-05, No Iterations 1
smoothSolver:  Solving for Uz, Initial residual = 0.00085135983, Final residual = 7.6681515e-05, No Iterations 1
GAMG:  Solving for p, Initial residual = 0.010635289, Final residual = 6.9873623e-05, No Iterations 4
GAMG:  Solving for p, Initial residual = 0.00066269401, Final residual = 5.9573478e-06, No Iterations 4
GAMG:  Solving for p, Initial residual = 8.7074765e-05, Final residual = 6.0229586e-07, No Iterations 4
GAMG:  Solving for p, Initial residual = 1.9336967e-05, Final residual = 1.3378275e-07, No Iterations 3
GAMG:  Solving for p, Initial residual = 4.8445553e-06, Final residual = 3.5488311e-08, No Iterations 3
GAMG:  Solving for p, Initial residual = 1.3229446e-06, Final residual = 8.2785924e-09, No Iterations 3
time step continuity errors : sum local = 5.1573663e-08, global = -6.1667707e-09, cumulative = -1.826817e-06
smoothSolver:  Solving for omega, Initial residual = 0.0018909978, Final residual = 0.00016644965, No Iterations 2
smoothSolver:  Solving for k, Initial residual = 0.01300754, Final residual = 0.00060606261, No Iterations 3
ExecutionTime = x.xx s  ClockTime = x.xx s

Time = 50s

smoothSolver:  Solving for Ux, Initial residual = 0.0031462124, Final residual = 0.00026796332, No Iterations 1
smoothSolver:  Solving for Uy, Initial residual = 0.00027634307, Final residual = 2.4701912e-05, No Iterations 1
[...]
smoothSolver:  Solving for Uy, Initial residual = 1.3228691e-05, Final residual = 1.2712284e-06, No Iterations 1
smoothSolver:  Solving for Uz, Initial residual = 4.537586e-05, Final residual = 3.0761928e-06, No Iterations 1
GAMG:  Solving for p, Initial residual = 0.00016198097, Final residual = 1.1291262e-06, No Iterations 4
GAMG:  Solving for p, Initial residual = 9.2353568e-06, Final residual = 5.2425546e-08, No Iterations 5
GAMG:  Solving for p, Initial residual = 1.227188e-06, Final residual = 1.166937e-08, No Iterations 3
GAMG:  Solving for p, Initial residual = 2.5220224e-07, Final residual = 5.8513546e-09, No Iterations 2
GAMG:  Solving for p, Initial residual = 5.9387098e-08, Final residual = 4.5901324e-09, No Iterations 1
GAMG:  Solving for p, Initial residual = 1.6794527e-08, Final residual = 2.5695949e-09, No Iterations 1
time step continuity errors : sum local = 1.5867553e-08, global = 2.361658e-09, cumulative = -1.878884e-06
smoothSolver:  Solving for omega, Initial residual = 3.6842732e-05, Final residual = 1.0236284e-06, No Iterations 2
smoothSolver:  Solving for k, Initial residual = 0.00046313159, Final residual = 1.4786002e-05, No Iterations 2
ExecutionTime = x.xx s  ClockTime = x.xx s

Time = 95s

smoothSolver:  Solving for Ux, Initial residual = 0.00012094121, Final residual = 8.90881e-06, No Iterations 1
smoothSolver:  Solving for Uy, Initial residual = 1.2262084e-05, Final residual = 1.1454821e-06, No Iterations 1
smoothSolver:  Solving for Uz, Initial residual = 4.0876455e-05, Final residual = 2.7137682e-06, No Iterations 1
GAMG:  Solving for p, Initial residual = 0.00015172092, Final residual = 1.0237707e-06, No Iterations 4
GAMG:  Solving for p, Initial residual = 8.6842069e-06, Final residual = 4.7991364e-08, No Iterations 5
GAMG:  Solving for p, Initial residual = 1.1591455e-06, Final residual = 1.0748591e-08, No Iterations 3
GAMG:  Solving for p, Initial residual = 2.4355194e-07, Final residual = 5.4451106e-09, No Iterations 2
GAMG:  Solving for p, Initial residual = 5.8138958e-08, Final residual = 4.2079837e-09, No Iterations 1
GAMG:  Solving for p, Initial residual = 1.6425867e-08, Final residual = 2.4366018e-09, No Iterations 1
time step continuity errors : sum local = 1.5044267e-08, global = 2.3327496e-09, cumulative = -1.8765513e-06
smoothSolver:  Solving for omega, Initial residual = 3.3250051e-05, Final residual = 3.2835605e-06, No Iterations 1
smoothSolver:  Solving for k, Initial residual = 0.00040957951, Final residual = 1.2753584e-05, No Iterations 2
ExecutionTime = x.xx s  ClockTime = x.xx s

Time = 96s

smoothSolver:  Solving for Ux, Initial residual = 0.00010947411, Final residual = 7.867437e-06, No Iterations 1
smoothSolver:  Solving for Uy, Initial residual = 1.1201991e-05, Final residual = 1.0098649e-06, No Iterations 1
smoothSolver:  Solving for Uz, Initial residual = 3.6690277e-05, Final residual = 2.3785553e-06, No Iterations 1
GAMG:  Solving for p, Initial residual = 0.00014173871, Final residual = 9.4495943e-07, No Iterations 4
GAMG:  Solving for p, Initial residual = 8.1237324e-06, Final residual = 4.4589347e-08, No Iterations 5
GAMG:  Solving for p, Initial residual = 1.1082576e-06, Final residual = 1.0065347e-08, No Iterations 3
GAMG:  Solving for p, Initial residual = 2.4031317e-07, Final residual = 5.1356666e-09, No Iterations 2
GAMG:  Solving for p, Initial residual = 5.6572232e-08, Final residual = 3.9649662e-09, No Iterations 1
GAMG:  Solving for p, Initial residual = 1.6157226e-08, Final residual = 2.3630902e-09, No Iterations 1
time step continuity errors : sum local = 1.4588537e-08, global = 2.4141204e-09, cumulative = -1.8741372e-06
smoothSolver:  Solving for omega, Initial residual = 3.0220376e-05, Final residual = 3.0012846e-06, No Iterations 1
smoothSolver:  Solving for k, Initial residual = 0.0003618637, Final residual = 1.0987239e-05, No Iterations 2
ExecutionTime = x.xx s  ClockTime = x.xx s

Time = 97s

smoothSolver:  Solving for Ux, Initial residual = 9.9529257e-05, Final residual = 6.9581086e-06, No Iterations 1
smoothSolver:  Solving for Uy, Initial residual = 1.0158353e-05, Final residual = 8.8234618e-07, No Iterations 1
smoothSolver:  Solving for Uz, Initial residual = 3.2831284e-05, Final residual = 2.0776454e-06, No Iterations 1
GAMG:  Solving for p, Initial residual = 0.00013124496, Final residual = 8.7179049e-07, No Iterations 4
GAMG:  Solving for p, Initial residual = 7.3147361e-06, Final residual = 4.1157467e-08, No Iterations 5
GAMG:  Solving for p, Initial residual = 9.9744868e-07, Final residual = 9.2327635e-09, No Iterations 3
GAMG:  Solving for p, Initial residual = 2.223348e-07, Final residual = 4.7263349e-09, No Iterations 2
GAMG:  Solving for p, Initial residual = 5.1046267e-08, Final residual = 3.6208151e-09, No Iterations 1
GAMG:  Solving for p, Initial residual = 1.4842926e-08, Final residual = 2.2101972e-09, No Iterations 1
time step continuity errors : sum local = 1.3643062e-08, global = 2.2954938e-09, cumulative = -1.8718417e-06
smoothSolver:  Solving for omega, Initial residual = 2.7387245e-05, Final residual = 2.7316209e-06, No Iterations 1
smoothSolver:  Solving for k, Initial residual = 0.00031936271, Final residual = 9.4555475e-06, No Iterations 2
ExecutionTime = x.xx s  ClockTime = x.xx s

Time = 98s

smoothSolver:  Solving for Ux, Initial residual = 9.0965957e-05, Final residual = 6.184206e-06, No Iterations 1
smoothSolver:  Solving for Uy, Initial residual = 9.231316e-06, Final residual = 7.7430762e-07, No Iterations 1
smoothSolver:  Solving for Uz, Initial residual = 2.9286312e-05, Final residual = 1.812476e-06, No Iterations 1
GAMG:  Solving for p, Initial residual = 0.00012090468, Final residual = 7.970571e-07, No Iterations 4
GAMG:  Solving for p, Initial residual = 6.5566e-06, Final residual = 3.7545033e-08, No Iterations 5
GAMG:  Solving for p, Initial residual = 9.061474e-07, Final residual = 8.4837767e-09, No Iterations 3
GAMG:  Solving for p, Initial residual = 2.0372303e-07, Final residual = 9.7195301e-09, No Iterations 1
GAMG:  Solving for p, Initial residual = 4.7525785e-08, Final residual = 5.0499424e-09, No Iterations 1
GAMG:  Solving for p, Initial residual = 1.511297e-08, Final residual = 3.2168155e-09, No Iterations 1
time step continuity errors : sum local = 1.9854662e-08, global = 2.8854559e-09, cumulative = -1.8689562e-06
smoothSolver:  Solving for omega, Initial residual = 2.475272e-05, Final residual = 6.7272969e-07, No Iterations 2
smoothSolver:  Solving for k, Initial residual = 0.00028152357, Final residual = 8.1251173e-06, No Iterations 2
ExecutionTime = x.xx s  ClockTime = x.xx s

Time = 99s

smoothSolver:  Solving for Ux, Initial residual = 8.3083766e-05, Final residual = 5.5026897e-06, No Iterations 1
smoothSolver:  Solving for Uy, Initial residual = 8.4414917e-06, Final residual = 6.863561e-07, No Iterations 1
smoothSolver:  Solving for Uz, Initial residual = 2.6044071e-05, Final residual = 1.5810365e-06, No Iterations 1
GAMG:  Solving for p, Initial residual = 0.00011131261, Final residual = 7.1794498e-07, No Iterations 4
GAMG:  Solving for p, Initial residual = 5.8650198e-06, Final residual = 3.3653585e-08, No Iterations 5
GAMG:  Solving for p, Initial residual = 8.0539875e-07, Final residual = 7.6356133e-09, No Iterations 3
GAMG:  Solving for p, Initial residual = 1.8003657e-07, Final residual = 8.8511309e-09, No Iterations 1
GAMG:  Solving for p, Initial residual = 4.1721774e-08, Final residual = 4.5636511e-09, No Iterations 1
GAMG:  Solving for p, Initial residual = 1.3283955e-08, Final residual = 2.8602409e-09, No Iterations 1
time step continuity errors : sum local = 1.7652284e-08, global = 2.5436692e-09, cumulative = -1.8664125e-06
smoothSolver:  Solving for omega, Initial residual = 2.2083705e-05, Final residual = 2.1372581e-06, No Iterations 1
smoothSolver:  Solving for k, Initial residual = 0.00024799133, Final residual = 6.9853446e-06, No Iterations 2
ExecutionTime = x.xx s  ClockTime = x.xx s

Time = 100s

smoothSolver:  Solving for Ux, Initial residual = 7.5303391e-05, Final residual = 4.8778752e-06, No Iterations 1
smoothSolver:  Solving for Uy, Initial residual = 7.7377431e-06, Final residual = 6.1258867e-07, No Iterations 1
smoothSolver:  Solving for Uz, Initial residual = 2.3074373e-05, Final residual = 1.3771441e-06, No Iterations 1
GAMG:  Solving for p, Initial residual = 0.00010251582, Final residual = 6.3430011e-07, No Iterations 4
GAMG:  Solving for p, Initial residual = 5.2552682e-06, Final residual = 2.9650178e-08, No Iterations 5
GAMG:  Solving for p, Initial residual = 7.0545538e-07, Final residual = 6.6261726e-09, No Iterations 3
GAMG:  Solving for p, Initial residual = 1.5655306e-07, Final residual = 7.8202991e-09, No Iterations 1
GAMG:  Solving for p, Initial residual = 3.6548307e-08, Final residual = 4.0231149e-09, No Iterations 1
GAMG:  Solving for p, Initial residual = 1.1609309e-08, Final residual = 2.4677729e-09, No Iterations 1
time step continuity errors : sum local = 1.5228993e-08, global = 2.136065e-09, cumulative = -1.8642765e-06
smoothSolver:  Solving for omega, Initial residual = 1.9846512e-05, Final residual = 1.926114e-06, No Iterations 1
smoothSolver:  Solving for k, Initial residual = 0.00021838387, Final residual = 6.0019879e-06, No Iterations 2
ExecutionTime = x.xx s  ClockTime = x.xx s

Time = 101s

smoothSolver:  Solving for Ux, Initial residual = 6.7479539e-05, Final residual = 4.2881465e-06, No Iterations 1
smoothSolver:  Solving for Uy, Initial residual = 7.057058e-06, Final residual = 5.455518e-07, No Iterations 1
smoothSolver:  Solving for Uz, Initial residual = 2.0363511e-05, Final residual = 1.1965741e-06, No Iterations 1
GAMG:  Solving for p, Initial residual = 9.4614933e-05, Final residual = 5.540495e-07, No Iterations 4
GAMG:  Solving for p, Initial residual = 4.6351021e-06, Final residual = 2.5454881e-08, No Iterations 5
GAMG:  Solving for p, Initial residual = 6.3231442e-07, Final residual = 5.6334417e-09, No Iterations 3
GAMG:  Solving for p, Initial residual = 1.3949908e-07, Final residual = 6.7722531e-09, No Iterations 1
GAMG:  Solving for p, Initial residual = 3.3161285e-08, Final residual = 3.4539297e-09, No Iterations 1
GAMG:  Solving for p, Initial residual = 1.0426709e-08, Final residual = 2.1107597e-09, No Iterations 1
time step continuity errors : sum local = 1.3024965e-08, global = 1.7835376e-09, cumulative = -1.8624929e-06
smoothSolver:  Solving for omega, Initial residual = 1.7792936e-05, Final residual = 1.7308949e-06, No Iterations 1
smoothSolver:  Solving for k, Initial residual = 0.00019230169, Final residual = 5.1536667e-06, No Iterations 2
ExecutionTime = x.xx s  ClockTime = x.xx s

Time = 102s

smoothSolver:  Solving for Ux, Initial residual = 5.9770487e-05, Final residual = 3.7346117e-06, No Iterations 1
smoothSolver:  Solving for Uy, Initial residual = 6.3657033e-06, Final residual = 4.8091856e-07, No Iterations 1
smoothSolver:  Solving for Uz, Initial residual = 1.7900112e-05, Final residual = 1.0359705e-06, No Iterations 1
GAMG:  Solving for p, Initial residual = 8.7311183e-05, Final residual = 4.8446088e-07, No Iterations 4
GAMG:  Solving for p, Initial residual = 4.2379102e-06, Final residual = 2.2439051e-08, No Iterations 5
GAMG:  Solving for p, Initial residual = 5.7412981e-07, Final residual = 5.0585723e-09, No Iterations 3
GAMG:  Solving for p, Initial residual = 1.2858357e-07, Final residual = 6.3172023e-09, No Iterations 1
GAMG:  Solving for p, Initial residual = 3.1198656e-08, Final residual = 3.1664502e-09, No Iterations 1
GAMG:  Solving for p, Initial residual = 9.8303901e-09, Final residual = 9.8303901e-09, No Iterations 0
time step continuity errors : sum local = 6.0657319e-08, global = 3.4377162e-09, cumulative = -1.8590552e-06
smoothSolver:  Solving for omega, Initial residual = 1.5911196e-05, Final residual = 1.5509062e-06, No Iterations 1
smoothSolver:  Solving for k, Initial residual = 0.00016918381, Final residual = 4.4246245e-06, No Iterations 2
ExecutionTime = x.xx s  ClockTime = x.xx s

Time = 103s

smoothSolver:  Solving for Ux, Initial residual = 5.2510697e-05, Final residual = 3.2275221e-06, No Iterations 1
smoothSolver:  Solving for Uy, Initial residual = 5.6730592e-06, Final residual = 4.1868896e-07, No Iterations 1
smoothSolver:  Solving for Uz, Initial residual = 1.567474e-05, Final residual = 8.9368596e-07, No Iterations 1
GAMG:  Solving for p, Initial residual = 8.0403994e-05, Final residual = 4.2519298e-07, No Iterations 4
GAMG:  Solving for p, Initial residual = 3.9711172e-06, Final residual = 2.0821682e-08, No Iterations 5
GAMG:  Solving for p, Initial residual = 5.3993401e-07, Final residual = 4.8153145e-09, No Iterations 3
GAMG:  Solving for p, Initial residual = 1.2030636e-07, Final residual = 5.9955402e-09, No Iterations 1
GAMG:  Solving for p, Initial residual = 2.9259097e-08, Final residual = 3.0175765e-09, No Iterations 1
GAMG:  Solving for p, Initial residual = 9.2569321e-09, Final residual = 9.2569321e-09, No Iterations 0
time step continuity errors : sum local = 5.7115848e-08, global = 3.2300424e-09, cumulative = -1.8558252e-06
smoothSolver:  Solving for omega, Initial residual = 1.4192077e-05, Final residual = 1.3855242e-06, No Iterations 1
smoothSolver:  Solving for k, Initial residual = 0.00014868879, Final residual = 1.4702069e-05, No Iterations 1
ExecutionTime = x.xx s  ClockTime = x.xx s

Time = 104s

smoothSolver:  Solving for Ux, Initial residual = 4.5959077e-05, Final residual = 2.7714097e-06, No Iterations 1
smoothSolver:  Solving for Uy, Initial residual = 5.0139038e-06, Final residual = 3.6136899e-07, No Iterations 1
smoothSolver:  Solving for Uz, Initial residual = 1.3674323e-05, Final residual = 7.6809531e-07, No Iterations 1
GAMG:  Solving for p, Initial residual = 7.3680499e-05, Final residual = 7.273288e-07, No Iterations 3
GAMG:  Solving for p, Initial residual = 3.7765082e-06, Final residual = 2.9807054e-08, No Iterations 5
GAMG:  Solving for p, Initial residual = 5.2297517e-07, Final residual = 6.4455027e-09, No Iterations 3
GAMG:  Solving for p, Initial residual = 1.1418175e-07, Final residual = 6.5385957e-09, No Iterations 1
GAMG:  Solving for p, Initial residual = 2.8587562e-08, Final residual = 3.6899966e-09, No Iterations 1
GAMG:  Solving for p, Initial residual = 9.5356845e-09, Final residual = 9.5356845e-09, No Iterations 0
time step continuity errors : sum local = 5.8833027e-08, global = 3.6857009e-09, cumulative = -1.8521395e-06
smoothSolver:  Solving for omega, Initial residual = 1.2614071e-05, Final residual = 1.2314766e-06, No Iterations 1
smoothSolver:  Solving for k, Initial residual = 0.00013135686, Final residual = 1.3056338e-05, No Iterations 1
ExecutionTime = x.xx s  ClockTime = x.xx s

Time = 105s

smoothSolver:  Solving for Ux, Initial residual = 4.0329474e-05, Final residual = 2.381832e-06, No Iterations 1
smoothSolver:  Solving for Uy, Initial residual = 4.4212381e-06, Final residual = 3.1121672e-07, No Iterations 1
smoothSolver:  Solving for Uz, Initial residual = 1.1893033e-05, Final residual = 6.5890297e-07, No Iterations 1
GAMG:  Solving for p, Initial residual = 6.7273577e-05, Final residual = 6.4166996e-07, No Iterations 3
GAMG:  Solving for p, Initial residual = 3.4328574e-06, Final residual = 2.6444334e-08, No Iterations 5
GAMG:  Solving for p, Initial residual = 4.7936451e-07, Final residual = 5.762686e-09, No Iterations 3
GAMG:  Solving for p, Initial residual = 1.0417896e-07, Final residual = 5.7980856e-09, No Iterations 1
GAMG:  Solving for p, Initial residual = 2.589021e-08, Final residual = 3.3274693e-09, No Iterations 1
GAMG:  Solving for p, Initial residual = 8.6376327e-09, Final residual = 8.6376327e-09, No Iterations 0
time step continuity errors : sum local = 5.329012e-08, global = 3.411312e-09, cumulative = -1.8487282e-06
smoothSolver:  Solving for omega, Initial residual = 1.1188565e-05, Final residual = 1.0928607e-06, No Iterations 1
smoothSolver:  Solving for k, Initial residual = 0.00011590553, Final residual = 3.046561e-06, No Iterations 2
ExecutionTime = x.xx s  ClockTime = x.xx s

Time = 106s

smoothSolver:  Solving for Ux, Initial residual = 3.558099e-05, Final residual = 2.0587527e-06, No Iterations 1
smoothSolver:  Solving for Uy, Initial residual = 3.9064387e-06, Final residual = 2.68894e-07, No Iterations 1
smoothSolver:  Solving for Uz, Initial residual = 1.0319367e-05, Final residual = 5.6520699e-07, No Iterations 1
GAMG:  Solving for p, Initial residual = 6.1289082e-05, Final residual = 5.6521161e-07, No Iterations 3
GAMG:  Solving for p, Initial residual = 3.1391334e-06, Final residual = 2.3463001e-08, No Iterations 5
GAMG:  Solving for p, Initial residual = 4.3813077e-07, Final residual = 5.1949413e-09, No Iterations 3
GAMG:  Solving for p, Initial residual = 9.5339522e-08, Final residual = 5.1871245e-09, No Iterations 1
GAMG:  Solving for p, Initial residual = 2.3591301e-08, Final residual = 3.0038073e-09, No Iterations 1
GAMG:  Solving for p, Initial residual = 7.9038753e-09, Final residual = 7.9038753e-09, No Iterations 0
time step continuity errors : sum local = 4.8761561e-08, global = 3.1636845e-09, cumulative = -1.8455645e-06
smoothSolver:  Solving for omega, Initial residual = 9.919793e-06, Final residual = 9.707777e-07, No Iterations 1
smoothSolver:  Solving for k, Initial residual = 0.00010149521, Final residual = 1.0041082e-05, No Iterations 1
ExecutionTime = x.xx s  ClockTime = x.xx s

Time = 107s

smoothSolver:  Solving for Ux, Initial residual = 3.1409617e-05, Final residual = 1.7764756e-06, No Iterations 1
smoothSolver:  Solving for Uy, Initial residual = 3.4602269e-06, Final residual = 2.333062e-07, No Iterations 1
smoothSolver:  Solving for Uz, Initial residual = 8.9295058e-06, Final residual = 4.8434666e-07, No Iterations 1
GAMG:  Solving for p, Initial residual = 5.5675134e-05, Final residual = 4.972965e-07, No Iterations 3
GAMG:  Solving for p, Initial residual = 2.8547226e-06, Final residual = 2.0743294e-08, No Iterations 5
GAMG:  Solving for p, Initial residual = 3.9583022e-07, Final residual = 9.8757113e-09, No Iterations 2
GAMG:  Solving for p, Initial residual = 8.9352389e-08, Final residual = 7.2597577e-09, No Iterations 1
GAMG:  Solving for p, Initial residual = 2.3315536e-08, Final residual = 4.4820433e-09, No Iterations 1
GAMG:  Solving for p, Initial residual = 8.8461726e-09, Final residual = 8.8461726e-09, No Iterations 0
time step continuity errors : sum local = 5.4573397e-08, global = 4.0138336e-09, cumulative = -1.8415506e-06
smoothSolver:  Solving for omega, Initial residual = 8.7737589e-06, Final residual = 8.5849479e-07, No Iterations 1
smoothSolver:  Solving for k, Initial residual = 8.9300886e-05, Final residual = 8.9243249e-06, No Iterations 1
ExecutionTime = x.xx s  ClockTime = x.xx s


SIMPLE solution converged in 107 iterations

End

Finalising parallel run
err: 0
# check for existing results
make case-report
make[x]: Entering directory '/tests/openfoam-paraview/run/run001'
python3 ../../../tools/sofa-framework/study-structures/openfoam/shared/report.py
no R report is specified in sofa.*.json
make[x]: Leaving directory '/tests/openfoam-paraview/run/run001'
make[x]: Leaving directory '/tests/openfoam-paraview/run/run001'
make python-post
make[x]: Entering directory '/tests/openfoam-paraview/run/run001'
Hello Python-Post-Script
make[x]: Leaving directory '/tests/openfoam-paraview/run/run001'
make paraview-macros
make[x]: Entering directory '/tests/openfoam-paraview/run/run001'
python3 ../../../tools/sofa-framework/study-structures/openfoam/shared/python-postprocessing.py
pvbatch ../../../tools/sofa-framework/study-structures/openfoam/shared/paraview-export-all.py
load pv.foam and paraview state
execute picture export
save renderView: 1
save renderView: 2
make[x]: Leaving directory '/tests/openfoam-paraview/run/run001'
make[x]: Leaving directory '/tests/openfoam-paraview/run/run001'
