make[x]: Entering directory '/tests/openfoam-paraview/run/run001'
starting sofa-tasks.py in verbose mode
    with passed entryPoint:  upstreamLinks
*** update Upstream-Links in  run001  ***
start case constructor
with case-json:   sofa.run.FREECAD.json	in: /tests/openfoam-paraview/run/run001
creating case:         		  >>  run001  <<
Skip existing folder      /openfoam-paraview/run/run001
Skip onlyAtCreation file: sofa.run.json
Skip correct link    /openfoam-paraview/run/run001/makefile 		 with pointer to   /tools/sofa-framework/study-structures/openfoam/run/case000/makefile_case_run.mk
Skip correct link    /openfoam-paraview/run/run001/.gitignore 		 with pointer to   /tools/sofa-framework/study-structures/openfoam/run/case000/.gitignore_foam
Skip existing file        /openfoam-paraview/run/run001/pv.foam
create upstream aspect links for:  	  >>  run001  <<
Skip correct link    mesh001 		 with pointer to   ../../mesh/mesh001
Creating link to     constant/polyMesh 		 with pointer to   ../../mesh/mesh001/constant/polyMesh
Unabel to find (728) >../../mesh/mesh001/doc/meshReport<
Skipping >/home/jan/isac/klimdim/src/tools/sofa-framework/tests/openfoam-paraview/run/shared/reportTemplates< because it is a directory

*** finished sofa-tasks.py *** 

make[x]: Entering directory '/tests/openfoam-paraview/run/run001'
make[x]: Entering directory '/tests/openfoam-paraview/run/run001'
cp    -rf  0.org/*  0
make[x]: Leaving directory '/tests/openfoam-paraview/run/run001'
./Allrun
/*---------------------------------------------------------------------------*\
  =========                 |
  \\      /  F ield         | OpenFOAM: The Open Source CFD Toolbox
   \\    /   O peration     | Website:  https://openfoam.org
    \\  /    A nd           | Version:  7
     \\/     M anipulation  |
\*---------------------------------------------------------------------------*/
Build  : 7-3bcbaf946ae9
Exec   : createPatch -overwrite
Date   : xxx xx xxxx
Time   : xx:xx:xx
Host   : "LocalMachine"
PID    : xxxxxx
I/O    : uncollated
Case   : /tests/openfoam-paraview/run/run001
nProcs : 1
sigFpe : Enabling floating point exception trapping (FOAM_SIGFPE).
fileModificationChecking : Monitoring run-time modified files using timeStampMaster (fileModificationSkew 10)
allowSystemOperations : Allowing user-supplied system call operations

// * * * * * * * * * * * * * * * * * * * * * * * * * * * * * * * * * * * * * //
Create time

Create polyMesh for time = 0

Reading createPatchDict

Adding new patch Inlet as patch 5 from 
{
    type            patch;
}

Adding new patch outlet as patch 6 from 
{
    type            patch;
}

Adding new patch wall as patch 7 from 
{
    type            wall;
}


Moving faces from patch face0 to patch 5
Moving faces from patch face4 to patch 6
Moving faces from patch face1 to patch 7
Moving faces from patch face2 to patch 7
Moving faces from patch face3 to patch 7

Doing topology modification to order faces.

Not synchronising points.

Removing patches with no faces in them.

Removing zero-sized patch face0 type wall at position 0
Removing zero-sized patch face1 type wall at position 1
Removing zero-sized patch face2 type wall at position 2
Removing zero-sized patch face3 type wall at position 3
Removing zero-sized patch face4 type wall at position 4
Removing patches.
Writing repatched mesh to 0

End

/*---------------------------------------------------------------------------*\
  =========                 |
  \\      /  F ield         | OpenFOAM: The Open Source CFD Toolbox
   \\    /   O peration     | Website:  https://openfoam.org
    \\  /    A nd           | Version:  7
     \\/     M anipulation  |
\*---------------------------------------------------------------------------*/
Build  : 7-3bcbaf946ae9
Exec   : potentialFoam -initialiseUBCs -pName p
Date   : xxx xx xxxx
Time   : xx:xx:xx
Host   : "LocalMachine"
PID    : xxxxxx
I/O    : uncollated
Case   : /tests/openfoam-paraview/run/run001
nProcs : 1
sigFpe : Enabling floating point exception trapping (FOAM_SIGFPE).
fileModificationChecking : Monitoring run-time modified files using timeStampMaster (fileModificationSkew 10)
allowSystemOperations : Allowing user-supplied system call operations

// * * * * * * * * * * * * * * * * * * * * * * * * * * * * * * * * * * * * * //
Create time

Create mesh for time = 0

Reading velocity field U

Constructing pressure field p

Constructing velocity potential field Phi

No MRF models present


Calculating potential flow
GAMG:  Solving for Phi, Initial residual = 1, Final residual = 0.0089366903, No Iterations 13
GAMG:  Solving for Phi, Initial residual = 0.0048896092, Final residual = 3.8323447e-05, No Iterations 4
GAMG:  Solving for Phi, Initial residual = 0.00077988596, Final residual = 6.0325317e-06, No Iterations 3
GAMG:  Solving for Phi, Initial residual = 0.00018582506, Final residual = 1.7006227e-06, No Iterations 3
GAMG:  Solving for Phi, Initial residual = 5.2197576e-05, Final residual = 4.9378375e-07, No Iterations 3
GAMG:  Solving for Phi, Initial residual = 1.6713755e-05, Final residual = 1.5127441e-07, No Iterations 3
GAMG:  Solving for Phi, Initial residual = 5.5681582e-06, Final residual = 8.235322e-08, No Iterations 2
GAMG:  Solving for Phi, Initial residual = 1.9625678e-06, Final residual = 5.075854e-08, No Iterations 2
GAMG:  Solving for Phi, Initial residual = 7.1106212e-07, Final residual = 6.9475757e-08, No Iterations 1
Continuity error = 5.1880377e-05
Interpolated velocity error = 0.0001729069
ExecutionTime = x.xx s  ClockTime = x.xx s

End

/*---------------------------------------------------------------------------*\
  =========                 |
  \\      /  F ield         | OpenFOAM: The Open Source CFD Toolbox
   \\    /   O peration     | Website:  https://openfoam.org
    \\  /    A nd           | Version:  7
     \\/     M anipulation  |
\*---------------------------------------------------------------------------*/
Build  : 7-3bcbaf946ae9
Exec   : decomposePar -force
Date   : xxx xx xxxx
Time   : xx:xx:xx
Host   : "LocalMachine"
PID    : xxxxxx
I/O    : uncollated
Case   : /tests/openfoam-paraview/run/run001
nProcs : 1
sigFpe : Enabling floating point exception trapping (FOAM_SIGFPE).
fileModificationChecking : Monitoring run-time modified files using timeStampMaster (fileModificationSkew 10)
allowSystemOperations : Allowing user-supplied system call operations

// * * * * * * * * * * * * * * * * * * * * * * * * * * * * * * * * * * * * * //
Create time

Removing 0 existing processor directories


Decomposing mesh region0

Create mesh

Calculating distribution of cells
 Foam::decompositionMethod::New 
{
    numberOfSubdomains 2;
    method          scotch;
}

Selecting decompositionMethod scotch

Finished decomposition in xxx s

Calculating original mesh data

Distributing cells to processors

Distributing faces to processors

Distributing points to processors

Constructing processor meshes
Reading hexRef8 data : cellLevel
Reading hexRef8 data : pointLevel
Reading hexRef8 data : level0Edge

Processor 0
    Number of cells = 2299
    Number of faces shared with processor 1 = 86
    Number of processor patches = 1
    Number of processor faces = 86
    Number of boundary faces = 796

Processor 1
    Number of cells = 2322
    Number of faces shared with processor 0 = 86
    Number of processor patches = 1
    Number of processor faces = 86
    Number of boundary faces = 788

Number of processor faces = 86
Max number of cells = 2322 (0.49772776% above average 2310.5)
Max number of processor patches = 1 (0% above average 1)
Max number of faces between processors = 86 (0% above average 86)

Time = 0

Processor 0: field transfer
Processor 1: field transfer

End

/*---------------------------------------------------------------------------*\
  =========                 |
  \\      /  F ield         | OpenFOAM: The Open Source CFD Toolbox
   \\    /   O peration     | Website:  https://openfoam.org
    \\  /    A nd           | Version:  7
     \\/     M anipulation  |
\*---------------------------------------------------------------------------*/
Build  : 7-3bcbaf946ae9
Exec   : simpleFoam -parallel
Date   : xxx xx xxxx
Time   : xx:xx:xx
Host   : "LocalMachine"
PID    : xxxxxx
I/O    : uncollated
Case   : /tests/openfoam-paraview/run/run001
nProcs : 2
Slaves : xxx
Pstream initialized with:
    floatTransfer      : 0
    nProcsSimpleSum    : 0
    commsType          : nonBlocking
    polling iterations : 0
sigFpe : Enabling floating point exception trapping (FOAM_SIGFPE).
fileModificationChecking : Monitoring run-time modified files using timeStampMaster (fileModificationSkew 10)
allowSystemOperations : Allowing user-supplied system call operations

// * * * * * * * * * * * * * * * * * * * * * * * * * * * * * * * * * * * * * //
Create time

Create mesh for time = 0


SIMPLE: Convergence criteria found
        p: tolerance 0.0001
        U: tolerance 0.0001
        "(k|epsilon|omega|f|v2|nuTilda)": tolerance 0.0001

Reading field p

Reading field U

Reading/calculating face flux field phi

Selecting incompressible transport model Newtonian
Selecting turbulence model type RAS
Selecting RAS turbulence model kOmegaSST
Selecting patchDistMethod meshWave
RAS
{
    RASModel        kOmegaSST;
    turbulence      on;
    printCoeffs     on;
    alphaK1         0.85;
    alphaK2         1;
    alphaOmega1     0.5;
    alphaOmega2     0.856;
    gamma1          0.55555556;
    gamma2          0.44;
    beta1           0.075;
    beta2           0.0828;
    betaStar        0.09;
    a1              0.31;
    b1              1;
    c1              10;
    F3              false;
}

No MRF models present

No finite volume options present

Starting time loop

Time = 1

smoothSolver:  Solving for Ux, Initial residual = 0.3647643, Final residual = 0.023572173, No Iterations 1
smoothSolver:  Solving for Uy, Initial residual = 0.040217715, Final residual = 0.00069125307, No Iterations 2
smoothSolver:  Solving for Uz, Initial residual = 0.044727685, Final residual = 0.00087910282, No Iterations 2
GAMG:  Solving for p, Initial residual = 1, Final residual = 0.0085630708, No Iterations 5
GAMG:  Solving for p, Initial residual = 0.074921011, Final residual = 0.00042657068, No Iterations 4
GAMG:  Solving for p, Initial residual = 0.012699471, Final residual = 0.00011103695, No Iterations 3
GAMG:  Solving for p, Initial residual = 0.0036186493, Final residual = 2.0154441e-05, No Iterations 3
GAMG:  Solving for p, Initial residual = 0.0010114122, Final residual = 5.6858607e-06, No Iterations 3
GAMG:  Solving for p, Initial residual = 0.00035090372, Final residual = 2.8842131e-06, No Iterations 2
time step continuity errors : sum local = 3.2470231e-05, global = -1.3340169e-05, cumulative = -1.3340169e-05
smoothSolver:  Solving for omega, Initial residual = 0.03697448, Final residual = 0.0028016379, No Iterations 2
smoothSolver:  Solving for k, Initial residual = 1, Final residual = 0.039787281, No Iterations 2
ExecutionTime = x.xx s  ClockTime = x.xx s

Time = 2

smoothSolver:  Solving for Ux, Initial residual = 0.27327352, Final residual = 0.021159661, No Iterations 1
smoothSolver:  Solving for Uy, Initial residual = 0.013561003, Final residual = 0.00021453991, No Iterations 2
smoothSolver:  Solving for Uz, Initial residual = 0.01379172, Final residual = 0.00027362294, No Iterations 2
GAMG:  Solving for p, Initial residual = 0.5300161, Final residual = 0.0042307788, No Iterations 5
GAMG:  Solving for p, Initial residual = 0.058916778, Final residual = 0.00032785777, No Iterations 4
GAMG:  Solving for p, Initial residual = 0.010562113, Final residual = 8.5891945e-05, No Iterations 3
GAMG:  Solving for p, Initial residual = 0.0030629625, Final residual = 1.6671209e-05, No Iterations 3
GAMG:  Solving for p, Initial residual = 0.00084999729, Final residual = 4.5318394e-06, No Iterations 3
GAMG:  Solving for p, Initial residual = 0.00029090475, Final residual = 2.3914584e-06, No Iterations 2
time step continuity errors : sum local = 3.4975495e-05, global = -1.4447152e-05, cumulative = -2.7787321e-05
smoothSolver:  Solving for omega, Initial residual = 0.024308133, Final residual = 0.0021207485, No Iterations 2
smoothSolver:  Solving for k, Initial residual = 0.23996519, Final residual = 0.008801613, No Iterations 2
ExecutionTime = x.xx s  ClockTime = x.xx s

Time = 3

smoothSolver:  Solving for Ux, Initial residual = 0.2428669, Final residual = 0.002037066, No Iterations 2
smoothSolver:  Solving for Uy, Initial residual = 0.013496518, Final residual = 0.0001704915, No Iterations 2
smoothSolver:  Solving for Uz, Initial residual = 0.017994456, Final residual = 0.00025601394, No Iterations 2
GAMG:  Solving for p, Initial residual = 0.27847831, Final residual = 0.0023035027, No Iterations 4
GAMG:  Solving for p, Initial residual = 0.040815291, Final residual = 0.00024492749, No Iterations 4
GAMG:  Solving for p, Initial residual = 0.0074312486, Final residual = 6.2632743e-05, No Iterations 3
GAMG:  Solving for p, Initial residual = 0.0021083406, Final residual = 1.213157e-05, No Iterations 3
GAMG:  Solving for p, Initial residual = 0.00055699355, Final residual = 2.6367941e-06, No Iterations 3
GAMG:  Solving for p, Initial residual = 0.00018157584, Final residual = 1.6294333e-06, No Iterations 2
time step continuity errors : sum local = 1.8289652e-05, global = 8.8038807e-06, cumulative = -1.898344e-05
smoothSolver:  Solving for omega, Initial residual = 0.018752233, Final residual = 0.0017971378, No Iterations 2
smoothSolver:  Solving for k, Initial residual = 0.13135825, Final residual = 0.0050735266, No Iterations 2
ExecutionTime = x.xx s  ClockTime = x.xx s

Time = 4

smoothSolver:  Solving for Ux, Initial residual = 0.16387604, Final residual = 0.0013312072, No Iterations 2
smoothSolver:  Solving for Uy, Initial residual = 0.018762981, Final residual = 0.00026376039, No Iterations 2
smoothSolver:  Solving for Uz, Initial residual = 0.024361794, Final residual = 0.00039005114, No Iterations 2
GAMG:  Solving for p, Initial residual = 0.24124953, Final residual = 0.0016229672, No Iterations 5
GAMG:  Solving for p, Initial residual = 0.036799411, Final residual = 0.00015686569, No Iterations 4
GAMG:  Solving for p, Initial residual = 0.0053641814, Final residual = 3.9324683e-05, No Iterations 3
GAMG:  Solving for p, Initial residual = 0.0013862646, Final residual = 1.047976e-05, No Iterations 3
GAMG:  Solving for p, Initial residual = 0.00036794847, Final residual = 2.3133859e-06, No Iterations 3
GAMG:  Solving for p, Initial residual = 0.00012063478, Final residual = 8.0843575e-07, No Iterations 3
time step continuity errors : sum local = 8.0847617e-06, global = 2.6758306e-06, cumulative = -1.6307609e-05
smoothSolver:  Solving for omega, Initial residual = 0.016191794, Final residual = 0.00071353089, No Iterations 3
smoothSolver:  Solving for k, Initial residual = 0.089244986, Final residual = 0.0038856165, No Iterations 2
ExecutionTime = x.xx s  ClockTime = x.xx s

Time = 5

smoothSolver:  Solving for Ux, Initial residual = 0.099407458, Final residual = 0.0009187154, No Iterations 2
smoothSolver:  Solving for Uy, Initial residual = 0.010536368, Final residual = 0.00016632243, No Iterations 2
smoothSolver:  Solving for Uz, Initial residual = 0.015086094, Final residual = 0.0002366758, No Iterations 2
GAMG:  Solving for p, Initial residual = 0.33610434, Final residual = 0.0027079423, No Iterations 5
GAMG:  Solving for p, Initial residual = 0.048527407, Final residual = 0.00025792076, No Iterations 4
GAMG:  Solving for p, Initial residual = 0.0070711, Final residual = 6.6644454e-05, No Iterations 3
GAMG:  Solving for p, Initial residual = 0.0016051382, Final residual = 1.1497412e-05, No Iterations 3
GAMG:  Solving for p, Initial residual = 0.00043753405, Final residual = 3.3792114e-06, No Iterations 3
GAMG:  Solving for p, Initial residual = 0.00013635926, Final residual = 7.1739499e-07, No Iterations 3
time step continuity errors : sum local = 7.3919411e-06, global = 2.8362103e-06, cumulative = -1.3471399e-05
smoothSolver:  Solving for omega, Initial residual = 0.014480616, Final residual = 0.00069824869, No Iterations 3
smoothSolver:  Solving for k, Initial residual = 0.068202356, Final residual = 0.0032686514, No Iterations 2
ExecutionTime = x.xx s  ClockTime = x.xx s

Time = 6

smoothSolver:  Solving for Ux, Initial residual = 0.093212917, Final residual = 0.00083207354, No Iterations 2
smoothSolver:  Solving for Uy, Initial residual = 0.0075817518, Final residual = 8.9829785e-05, No Iterations 2
smoothSolver:  Solving for Uz, Initial residual = 0.0070024666, Final residual = 9.3900325e-05, No Iterations 2
GAMG:  Solving for p, Initial residual = 0.35979823, Final residual = 0.0018177436, No Iterations 5
GAMG:  Solving for p, Initial residual = 0.049207524, Final residual = 0.00022334495, No Iterations 4
GAMG:  Solving for p, Initial residual = 0.0075426431, Final residual = 6.4205441e-05, No Iterations 3
GAMG:  Solving for p, Initial residual = 0.0016945849, Final residual = 1.2149658e-05, No Iterations 3
GAMG:  Solving for p, Initial residual = 0.00043989323, Final residual = 1.8677674e-06, No Iterations 4
GAMG:  Solving for p, Initial residual = 0.00013789012, Final residual = 8.7652105e-07, No Iterations 3
time step continuity errors : sum local = 6.8781211e-06, global = 2.5177169e-06, cumulative = -1.0953682e-05
smoothSolver:  Solving for omega, Initial residual = 0.012930602, Final residual = 0.00066994507, No Iterations 3
smoothSolver:  Solving for k, Initial residual = 0.055634561, Final residual = 0.0028620015, No Iterations 2
ExecutionTime = x.xx s  ClockTime = x.xx s

Time = 7

smoothSolver:  Solving for Ux, Initial residual = 0.079885396, Final residual = 0.00071848879, No Iterations 2
smoothSolver:  Solving for Uy, Initial residual = 0.011000338, Final residual = 0.0001355049, No Iterations 2
smoothSolver:  Solving for Uz, Initial residual = 0.010831526, Final residual = 0.00017634523, No Iterations 2
GAMG:  Solving for p, Initial residual = 0.31099815, Final residual = 0.0020497041, No Iterations 4
GAMG:  Solving for p, Initial residual = 0.026573086, Final residual = 0.00025185598, No Iterations 3
GAMG:  Solving for p, Initial residual = 0.0036403289, Final residual = 2.177352e-05, No Iterations 4
GAMG:  Solving for p, Initial residual = 0.00093510459, Final residual = 7.9815957e-06, No Iterations 3
GAMG:  Solving for p, Initial residual = 0.00025857832, Final residual = 2.0886631e-06, No Iterations 3
GAMG:  Solving for p, Initial residual = 8.7253379e-05, Final residual = 8.3991175e-07, No Iterations 3
time step continuity errors : sum local = 7.4122523e-06, global = -2.3932491e-06, cumulative = -1.3346931e-05
smoothSolver:  Solving for omega, Initial residual = 0.011607307, Final residual = 0.00063549439, No Iterations 3
smoothSolver:  Solving for k, Initial residual = 0.047427651, Final residual = 0.0025984865, No Iterations 2
ExecutionTime = x.xx s  ClockTime = x.xx s

Time = 8

smoothSolver:  Solving for Ux, Initial residual = 0.065944631, Final residual = 0.0005035697, No Iterations 2
smoothSolver:  Solving for Uy, Initial residual = 0.0096409096, Final residual = 0.00013617843, No Iterations 2
smoothSolver:  Solving for Uz, Initial residual = 0.0095343825, Final residual = 0.00014182781, No Iterations 2
GAMG:  Solving for p, Initial residual = 0.30594685, Final residual = 0.0016833482, No Iterations 5
GAMG:  Solving for p, Initial residual = 0.024645438, Final residual = 0.00023135834, No Iterations 3
GAMG:  Solving for p, Initial residual = 0.0038341126, Final residual = 1.7640616e-05, No Iterations 4
GAMG:  Solving for p, Initial residual = 0.00094847593, Final residual = 4.8846766e-06, No Iterations 3
GAMG:  Solving for p, Initial residual = 0.00026246555, Final residual = 2.5631015e-06, No Iterations 2
GAMG:  Solving for p, Initial residual = 8.4446572e-05, Final residual = 6.2707522e-07, No Iterations 3
time step continuity errors : sum local = 6.6337634e-06, global = -2.3757447e-06, cumulative = -1.5722676e-05
smoothSolver:  Solving for omega, Initial residual = 0.010618033, Final residual = 0.00060619738, No Iterations 3
smoothSolver:  Solving for k, Initial residual = 0.041768588, Final residual = 0.0024424063, No Iterations 2
ExecutionTime = x.xx s  ClockTime = x.xx s

Time = 9

smoothSolver:  Solving for Ux, Initial residual = 0.073353612, Final residual = 0.00056484559, No Iterations 2
smoothSolver:  Solving for Uy, Initial residual = 0.0063785656, Final residual = 7.4329705e-05, No Iterations 2
smoothSolver:  Solving for Uz, Initial residual = 0.0064518823, Final residual = 5.8229219e-05, No Iterations 2
GAMG:  Solving for p, Initial residual = 0.23594469, Final residual = 0.0012990586, No Iterations 5
GAMG:  Solving for p, Initial residual = 0.023553048, Final residual = 0.00010412871, No Iterations 4
GAMG:  Solving for p, Initial residual = 0.0036666835, Final residual = 2.831827e-05, No Iterations 3
GAMG:  Solving for p, Initial residual = 0.00088261949, Final residual = 5.3635532e-06, No Iterations 3
GAMG:  Solving for p, Initial residual = 0.00024879755, Final residual = 1.315527e-06, No Iterations 3
GAMG:  Solving for p, Initial residual = 7.6327965e-05, Final residual = 6.9206484e-07, No Iterations 2
time step continuity errors : sum local = 6.7256002e-06, global = -2.6412313e-06, cumulative = -1.8363907e-05
smoothSolver:  Solving for omega, Initial residual = 0.0099266075, Final residual = 0.00058741507, No Iterations 3
smoothSolver:  Solving for k, Initial residual = 0.037750469, Final residual = 0.002364575, No Iterations 2
ExecutionTime = x.xx s  ClockTime = x.xx s

Time = 10

smoothSolver:  Solving for Ux, Initial residual = 0.077308626, Final residual = 0.00069677947, No Iterations 2
smoothSolver:  Solving for Uy, Initial residual = 0.0059825645, Final residual = 5.0642846e-05, No Iterations 2
smoothSolver:  Solving for Uz, Initial residual = 0.0083241203, Final residual = 7.9816662e-05, No Iterations 2
GAMG:  Solving for p, Initial residual = 0.20288329, Final residual = 0.0011077706, No Iterations 4
GAMG:  Solving for p, Initial residual = 0.019824974, Final residual = 0.00017411707, No Iterations 3
GAMG:  Solving for p, Initial residual = 0.0030547124, Final residual = 2.9421669e-05, No Iterations 3
GAMG:  Solving for p, Initial residual = 0.00070649345, Final residual = 5.5502839e-06, No Iterations 3
GAMG:  Solving for p, Initial residual = 0.00018707931, Final residual = 1.0557121e-06, No Iterations 3
GAMG:  Solving for p, Initial residual = 5.3222383e-05, Final residual = 2.3585969e-07, No Iterations 3
time step continuity errors : sum local = 1.7800794e-06, global = 6.9819635e-07, cumulative = -1.7665711e-05
smoothSolver:  Solving for omega, Initial residual = 0.0095436741, Final residual = 0.00058504514, No Iterations 3
smoothSolver:  Solving for k, Initial residual = 0.034822372, Final residual = 0.0023394498, No Iterations 2
ExecutionTime = x.xx s  ClockTime = x.xx s

Time = 11

smoothSolver:  Solving for Ux, Initial residual = 0.064651123, Final residual = 0.00061661809, No Iterations 2
smoothSolver:  Solving for Uy, Initial residual = 0.0049773105, Final residual = 5.3605286e-05, No Iterations 2
smoothSolver:  Solving for Uz, Initial residual = 0.0083880374, Final residual = 9.0137345e-05, No Iterations 2
GAMG:  Solving for p, Initial residual = 0.20713601, Final residual = 0.0015468048, No Iterations 4
GAMG:  Solving for p, Initial residual = 0.022260262, Final residual = 0.00010057477, No Iterations 4
GAMG:  Solving for p, Initial residual = 0.0034759046, Final residual = 1.9665105e-05, No Iterations 3
GAMG:  Solving for p, Initial residual = 0.00074662196, Final residual = 4.6295778e-06, No Iterations 3
GAMG:  Solving for p, Initial residual = 0.00021284666, Final residual = 9.4418399e-07, No Iterations 3
GAMG:  Solving for p, Initial residual = 5.9533432e-05, Final residual = 5.700546e-07, No Iterations 2
time step continuity errors : sum local = 4.2715968e-06, global = 1.6426148e-06, cumulative = -1.6023096e-05
smoothSolver:  Solving for omega, Initial residual = 0.0093963694, Final residual = 0.00059693975, No Iterations 3
smoothSolver:  Solving for k, Initial residual = 0.032538258, Final residual = 0.0023378435, No Iterations 2
ExecutionTime = x.xx s  ClockTime = x.xx s

Time = 12

smoothSolver:  Solving for Ux, Initial residual = 0.050895578, Final residual = 0.00042383464, No Iterations 2
smoothSolver:  Solving for Uy, Initial residual = 0.0037318075, Final residual = 3.7760282e-05, No Iterations 2
smoothSolver:  Solving for Uz, Initial residual = 0.0058310168, Final residual = 0.00056376814, No Iterations 1
GAMG:  Solving for p, Initial residual = 0.21034196, Final residual = 0.0018848971, No Iterations 4
GAMG:  Solving for p, Initial residual = 0.023861773, Final residual = 0.00011535456, No Iterations 4
GAMG:  Solving for p, Initial residual = 0.0035378636, Final residual = 2.2969202e-05, No Iterations 3
GAMG:  Solving for p, Initial residual = 0.00081906122, Final residual = 4.4807578e-06, No Iterations 3
GAMG:  Solving for p, Initial residual = 0.00022282759, Final residual = 9.8003918e-07, No Iterations 3
GAMG:  Solving for p, Initial residual = 6.7331416e-05, Final residual = 5.5882043e-07, No Iterations 2
time step continuity errors : sum local = 4.0043483e-06, global = 1.4382214e-06, cumulative = -1.4584875e-05
smoothSolver:  Solving for omega, Initial residual = 0.0093630872, Final residual = 0.00061558079, No Iterations 3
smoothSolver:  Solving for k, Initial residual = 0.030636073, Final residual = 0.0023437314, No Iterations 2
ExecutionTime = x.xx s  ClockTime = x.xx s

Time = 13

smoothSolver:  Solving for Ux, Initial residual = 0.043750841, Final residual = 0.0042740882, No Iterations 1
smoothSolver:  Solving for Uy, Initial residual = 0.004072657, Final residual = 3.0440924e-05, No Iterations 2
smoothSolver:  Solving for Uz, Initial residual = 0.0044531808, Final residual = 0.00042130615, No Iterations 1
GAMG:  Solving for p, Initial residual = 0.19952983, Final residual = 0.0016650162, No Iterations 4
GAMG:  Solving for p, Initial residual = 0.019236704, Final residual = 0.000104961, No Iterations 4
GAMG:  Solving for p, Initial residual = 0.0028074044, Final residual = 2.4486723e-05, No Iterations 3
GAMG:  Solving for p, Initial residual = 0.0006503895, Final residual = 3.3939562e-06, No Iterations 3
GAMG:  Solving for p, Initial residual = 0.00017433996, Final residual = 7.4265119e-07, No Iterations 3
GAMG:  Solving for p, Initial residual = 5.3793857e-05, Final residual = 4.0428358e-07, No Iterations 2
time step continuity errors : sum local = 2.7955648e-06, global = -1.1656056e-06, cumulative = -1.575048e-05
smoothSolver:  Solving for omega, Initial residual = 0.0092512477, Final residual = 0.00062479829, No Iterations 3
smoothSolver:  Solving for k, Initial residual = 0.028972998, Final residual = 0.0023518841, No Iterations 2
ExecutionTime = x.xx s  ClockTime = x.xx s

Time = 14

smoothSolver:  Solving for Ux, Initial residual = 0.042311075, Final residual = 0.0040089499, No Iterations 1
smoothSolver:  Solving for Uy, Initial residual = 0.004392965, Final residual = 3.7202118e-05, No Iterations 2
smoothSolver:  Solving for Uz, Initial residual = 0.0049206347, Final residual = 0.00049012495, No Iterations 1
GAMG:  Solving for p, Initial residual = 0.19251196, Final residual = 0.0019130744, No Iterations 3
GAMG:  Solving for p, Initial residual = 0.015029456, Final residual = 7.547007e-05, No Iterations 4
GAMG:  Solving for p, Initial residual = 0.0019587285, Final residual = 1.3471492e-05, No Iterations 3
GAMG:  Solving for p, Initial residual = 0.00044427864, Final residual = 3.2185276e-06, No Iterations 3
GAMG:  Solving for p, Initial residual = 0.00012133199, Final residual = 6.4376821e-07, No Iterations 3
GAMG:  Solving for p, Initial residual = 3.8190086e-05, Final residual = 2.3041646e-07, No Iterations 3
time step continuity errors : sum local = 1.7768867e-06, global = -5.6189415e-07, cumulative = -1.6312375e-05
smoothSolver:  Solving for omega, Initial residual = 0.0090444152, Final residual = 0.00062500771, No Iterations 3
smoothSolver:  Solving for k, Initial residual = 0.02757158, Final residual = 0.0023741965, No Iterations 2
ExecutionTime = x.xx s  ClockTime = x.xx s

Time = 15

smoothSolver:  Solving for Ux, Initial residual = 0.04326176, Final residual = 0.003397114, No Iterations 1
smoothSolver:  Solving for Uy, Initial residual = 0.0038180613, Final residual = 3.7585579e-05, No Iterations 2
smoothSolver:  Solving for Uz, Initial residual = 0.0049663963, Final residual = 0.00041439515, No Iterations 1
GAMG:  Solving for p, Initial residual = 0.17951444, Final residual = 0.001062885, No Iterations 4
GAMG:  Solving for p, Initial residual = 0.013200837, Final residual = 0.00012806209, No Iterations 3
GAMG:  Solving for p, Initial residual = 0.0017686073, Final residual = 1.71974e-05, No Iterations 3
GAMG:  Solving for p, Initial residual = 0.00039292622, Final residual = 3.3126264e-06, No Iterations 3
GAMG:  Solving for p, Initial residual = 0.00010562034, Final residual = 6.4080099e-07, No Iterations 3
GAMG:  Solving for p, Initial residual = 3.2240568e-05, Final residual = 1.8932145e-07, No Iterations 3
time step continuity errors : sum local = 1.5143765e-06, global = -4.7776193e-07, cumulative = -1.6790137e-05
smoothSolver:  Solving for omega, Initial residual = 0.0087600175, Final residual = 0.00061788412, No Iterations 3
smoothSolver:  Solving for k, Initial residual = 0.026402708, Final residual = 0.0024108714, No Iterations 2
ExecutionTime = x.xx s  ClockTime = x.xx s

Time = 16

smoothSolver:  Solving for Ux, Initial residual = 0.043535361, Final residual = 0.0031816219, No Iterations 1
smoothSolver:  Solving for Uy, Initial residual = 0.0031144047, Final residual = 2.8195658e-05, No Iterations 2
smoothSolver:  Solving for Uz, Initial residual = 0.0045778472, Final residual = 0.00031287582, No Iterations 1
GAMG:  Solving for p, Initial residual = 0.16079443, Final residual = 0.0011253361, No Iterations 4
GAMG:  Solving for p, Initial residual = 0.011923504, Final residual = 6.4484758e-05, No Iterations 4
GAMG:  Solving for p, Initial residual = 0.0015765443, Final residual = 1.1443319e-05, No Iterations 3
GAMG:  Solving for p, Initial residual = 0.00034527932, Final residual = 2.1533877e-06, No Iterations 3
GAMG:  Solving for p, Initial residual = 9.3549369e-05, Final residual = 9.2492789e-07, No Iterations 2
GAMG:  Solving for p, Initial residual = 2.8307788e-05, Final residual = 1.7170157e-07, No Iterations 3
time step continuity errors : sum local = 1.315531e-06, global = -1.5588607e-07, cumulative = -1.6946023e-05
smoothSolver:  Solving for omega, Initial residual = 0.0084940126, Final residual = 0.00061034465, No Iterations 3
smoothSolver:  Solving for k, Initial residual = 0.025441093, Final residual = 0.0024606434, No Iterations 2
ExecutionTime = x.xx s  ClockTime = x.xx s

Time = 17

smoothSolver:  Solving for Ux, Initial residual = 0.039932744, Final residual = 0.0029066948, No Iterations 1
smoothSolver:  Solving for Uy, Initial residual = 0.0027011762, Final residual = 0.00026802255, No Iterations 1
smoothSolver:  Solving for Uz, Initial residual = 0.0046596509, Final residual = 0.00031663514, No Iterations 1
GAMG:  Solving for p, Initial residual = 0.14111095, Final residual = 0.00068561675, No Iterations 4
GAMG:  Solving for p, Initial residual = 0.011099367, Final residual = 7.5598436e-05, No Iterations 3
GAMG:  Solving for p, Initial residual = 0.0012606408, Final residual = 1.1335227e-05, No Iterations 3
GAMG:  Solving for p, Initial residual = 0.0002795294, Final residual = 1.838839e-06, No Iterations 3
GAMG:  Solving for p, Initial residual = 6.9471207e-05, Final residual = 4.0537711e-07, No Iterations 3
GAMG:  Solving for p, Initial residual = 2.090251e-05, Final residual = 1.87696e-07, No Iterations 2
time step continuity errors : sum local = 1.3202403e-06, global = 5.5219971e-07, cumulative = -1.6393823e-05
smoothSolver:  Solving for omega, Initial residual = 0.0082560201, Final residual = 0.00060489129, No Iterations 3
smoothSolver:  Solving for k, Initial residual = 0.024641595, Final residual = 0.00096754091, No Iterations 3
ExecutionTime = x.xx s  ClockTime = x.xx s

Time = 18

smoothSolver:  Solving for Ux, Initial residual = 0.032969321, Final residual = 0.0024194118, No Iterations 1
smoothSolver:  Solving for Uy, Initial residual = 0.0024224365, Final residual = 0.00022362884, No Iterations 1
smoothSolver:  Solving for Uz, Initial residual = 0.0044608363, Final residual = 0.00029071583, No Iterations 1
GAMG:  Solving for p, Initial residual = 0.13120132, Final residual = 0.0010190694, No Iterations 3
GAMG:  Solving for p, Initial residual = 0.010328925, Final residual = 5.37675e-05, No Iterations 4
GAMG:  Solving for p, Initial residual = 0.0012989175, Final residual = 9.6853483e-06, No Iterations 3
GAMG:  Solving for p, Initial residual = 0.00028234668, Final residual = 1.8108662e-06, No Iterations 3
GAMG:  Solving for p, Initial residual = 7.4654132e-05, Final residual = 4.4289718e-07, No Iterations 3
GAMG:  Solving for p, Initial residual = 2.2996507e-05, Final residual = 2.2362291e-07, No Iterations 2
time step continuity errors : sum local = 1.4549743e-06, global = 6.4033489e-07, cumulative = -1.5753488e-05
smoothSolver:  Solving for omega, Initial residual = 0.0081182333, Final residual = 0.00060542207, No Iterations 3
smoothSolver:  Solving for k, Initial residual = 0.023924143, Final residual = 0.0010045257, No Iterations 3
ExecutionTime = x.xx s  ClockTime = x.xx s

Time = 19

smoothSolver:  Solving for Ux, Initial residual = 0.026447899, Final residual = 0.0018546724, No Iterations 1
smoothSolver:  Solving for Uy, Initial residual = 0.0022672107, Final residual = 0.00017961092, No Iterations 1
smoothSolver:  Solving for Uz, Initial residual = 0.003828546, Final residual = 0.00019787745, No Iterations 1
GAMG:  Solving for p, Initial residual = 0.1249434, Final residual = 0.0010914305, No Iterations 3
GAMG:  Solving for p, Initial residual = 0.010171142, Final residual = 5.4022172e-05, No Iterations 4
GAMG:  Solving for p, Initial residual = 0.0014635583, Final residual = 1.0428116e-05, No Iterations 3
GAMG:  Solving for p, Initial residual = 0.00034399778, Final residual = 1.9378745e-06, No Iterations 3
GAMG:  Solving for p, Initial residual = 9.4511661e-05, Final residual = 5.3318125e-07, No Iterations 3
GAMG:  Solving for p, Initial residual = 3.076441e-05, Final residual = 2.6925403e-07, No Iterations 2
time step continuity errors : sum local = 1.7177446e-06, global = 7.2648953e-07, cumulative = -1.5026998e-05
smoothSolver:  Solving for omega, Initial residual = 0.0080435911, Final residual = 0.00061011162, No Iterations 3
smoothSolver:  Solving for k, Initial residual = 0.02328269, Final residual = 0.0010406804, No Iterations 3
ExecutionTime = x.xx s  ClockTime = x.xx s

Time = 20

smoothSolver:  Solving for Ux, Initial residual = 0.02328284, Final residual = 0.0014194576, No Iterations 1
smoothSolver:  Solving for Uy, Initial residual = 0.002172407, Final residual = 0.00015241952, No Iterations 1
smoothSolver:  Solving for Uz, Initial residual = 0.0034448719, Final residual = 0.00017228843, No Iterations 1
GAMG:  Solving for p, Initial residual = 0.12078631, Final residual = 0.0011254573, No Iterations 3
GAMG:  Solving for p, Initial residual = 0.0090746647, Final residual = 4.4440657e-05, No Iterations 4
GAMG:  Solving for p, Initial residual = 0.0013452927, Final residual = 7.9329068e-06, No Iterations 3
GAMG:  Solving for p, Initial residual = 0.0002977106, Final residual = 1.57074e-06, No Iterations 3
GAMG:  Solving for p, Initial residual = 7.8591583e-05, Final residual = 4.1374621e-07, No Iterations 3
GAMG:  Solving for p, Initial residual = 2.4605761e-05, Final residual = 2.0993595e-07, No Iterations 2
time step continuity errors : sum local = 1.363401e-06, global = 5.7798962e-07, cumulative = -1.4449009e-05
smoothSolver:  Solving for omega, Initial residual = 0.0079751415, Final residual = 0.00061186754, No Iterations 3
smoothSolver:  Solving for k, Initial residual = 0.02265856, Final residual = 0.0010737522, No Iterations 3
ExecutionTime = x.xx s  ClockTime = x.xx s

Time = 21

smoothSolver:  Solving for Ux, Initial residual = 0.02403237, Final residual = 0.0013266754, No Iterations 1
smoothSolver:  Solving for Uy, Initial residual = 0.0020174276, Final residual = 0.00014362944, No Iterations 1
smoothSolver:  Solving for Uz, Initial residual = 0.0034274251, Final residual = 0.00020043157, No Iterations 1
GAMG:  Solving for p, Initial residual = 0.11194694, Final residual = 0.00084216101, No Iterations 3
GAMG:  Solving for p, Initial residual = 0.0075702821, Final residual = 7.1808557e-05, No Iterations 3
GAMG:  Solving for p, Initial residual = 0.00091297299, Final residual = 7.2698499e-06, No Iterations 3
GAMG:  Solving for p, Initial residual = 0.00019560643, Final residual = 1.2706081e-06, No Iterations 3
GAMG:  Solving for p, Initial residual = 5.0791168e-05, Final residual = 2.7216814e-07, No Iterations 3
GAMG:  Solving for p, Initial residual = 1.4943952e-05, Final residual = 6.8304438e-08, No Iterations 3
time step continuity errors : sum local = 4.5449574e-07, global = 1.6012407e-07, cumulative = -1.4288885e-05
smoothSolver:  Solving for omega, Initial residual = 0.0078257855, Final residual = 0.00060831825, No Iterations 3
smoothSolver:  Solving for k, Initial residual = 0.022083198, Final residual = 0.0011053774, No Iterations 3
ExecutionTime = x.xx s  ClockTime = x.xx s

Time = 22

smoothSolver:  Solving for Ux, Initial residual = 0.024818945, Final residual = 0.0013132575, No Iterations 1
smoothSolver:  Solving for Uy, Initial residual = 0.0017764318, Final residual = 0.00013061232, No Iterations 1
smoothSolver:  Solving for Uz, Initial residual = 0.0034122936, Final residual = 0.00020302437, No Iterations 1
GAMG:  Solving for p, Initial residual = 0.10472562, Final residual = 0.00085130998, No Iterations 3
GAMG:  Solving for p, Initial residual = 0.0066120169, Final residual = 4.3621987e-05, No Iterations 4
GAMG:  Solving for p, Initial residual = 0.00088109349, Final residual = 5.7989377e-06, No Iterations 3
GAMG:  Solving for p, Initial residual = 0.00019091919, Final residual = 1.2024771e-06, No Iterations 3
GAMG:  Solving for p, Initial residual = 5.0064962e-05, Final residual = 4.3776175e-07, No Iterations 2
GAMG:  Solving for p, Initial residual = 1.4522304e-05, Final residual = 8.5443896e-08, No Iterations 3
time step continuity errors : sum local = 5.7644568e-07, global = 2.3888131e-07, cumulative = -1.4050003e-05
smoothSolver:  Solving for omega, Initial residual = 0.007602098, Final residual = 0.00059928904, No Iterations 3
smoothSolver:  Solving for k, Initial residual = 0.021536874, Final residual = 0.0011339003, No Iterations 3
ExecutionTime = x.xx s  ClockTime = x.xx s

Time = 23

smoothSolver:  Solving for Ux, Initial residual = 0.023630923, Final residual = 0.0012112033, No Iterations 1
smoothSolver:  Solving for Uy, Initial residual = 0.0016283801, Final residual = 0.00011770594, No Iterations 1
smoothSolver:  Solving for Uz, Initial residual = 0.0032910752, Final residual = 0.00019531688, No Iterations 1
GAMG:  Solving for p, Initial residual = 0.095445701, Final residual = 0.00088569532, No Iterations 3
GAMG:  Solving for p, Initial residual = 0.0062391621, Final residual = 4.2756542e-05, No Iterations 4
GAMG:  Solving for p, Initial residual = 0.00084010179, Final residual = 5.6820378e-06, No Iterations 3
GAMG:  Solving for p, Initial residual = 0.00016782399, Final residual = 1.2891179e-06, No Iterations 3
GAMG:  Solving for p, Initial residual = 4.2860264e-05, Final residual = 1.9057829e-07, No Iterations 3
GAMG:  Solving for p, Initial residual = 1.2126936e-05, Final residual = 5.7732654e-08, No Iterations 3
time step continuity errors : sum local = 3.8928127e-07, global = 1.4845116e-07, cumulative = -1.3901552e-05
smoothSolver:  Solving for omega, Initial residual = 0.0073335703, Final residual = 0.00058662677, No Iterations 3
smoothSolver:  Solving for k, Initial residual = 0.021030284, Final residual = 0.0011605701, No Iterations 3
ExecutionTime = x.xx s  ClockTime = x.xx s

Time = 24

smoothSolver:  Solving for Ux, Initial residual = 0.020959115, Final residual = 0.0011272788, No Iterations 1
smoothSolver:  Solving for Uy, Initial residual = 0.0015929341, Final residual = 0.00010968639, No Iterations 1
smoothSolver:  Solving for Uz, Initial residual = 0.0031300399, Final residual = 0.00018805503, No Iterations 1
GAMG:  Solving for p, Initial residual = 0.087025142, Final residual = 0.00076246049, No Iterations 3
GAMG:  Solving for p, Initial residual = 0.0055004447, Final residual = 3.1046401e-05, No Iterations 4
GAMG:  Solving for p, Initial residual = 0.00072963041, Final residual = 3.4068029e-06, No Iterations 3
GAMG:  Solving for p, Initial residual = 0.00015326576, Final residual = 7.7801363e-07, No Iterations 3
GAMG:  Solving for p, Initial residual = 4.0792498e-05, Final residual = 3.0752697e-07, No Iterations 2
GAMG:  Solving for p, Initial residual = 1.2192713e-05, Final residual = 7.2378591e-08, No Iterations 3
time step continuity errors : sum local = 4.8293062e-07, global = -1.6203809e-07, cumulative = -1.406359e-05
smoothSolver:  Solving for omega, Initial residual = 0.0070641076, Final residual = 0.00057350565, No Iterations 3
smoothSolver:  Solving for k, Initial residual = 0.020551974, Final residual = 0.001186151, No Iterations 3
ExecutionTime = x.xx s  ClockTime = x.xx s

Time = 25

smoothSolver:  Solving for Ux, Initial residual = 0.018030096, Final residual = 0.0010371761, No Iterations 1
smoothSolver:  Solving for Uy, Initial residual = 0.0015518765, Final residual = 0.00010175825, No Iterations 1
smoothSolver:  Solving for Uz, Initial residual = 0.0029778822, Final residual = 0.00017573978, No Iterations 1
GAMG:  Solving for p, Initial residual = 0.079243156, Final residual = 0.00058396232, No Iterations 3
GAMG:  Solving for p, Initial residual = 0.0049000244, Final residual = 2.3975089e-05, No Iterations 4
GAMG:  Solving for p, Initial residual = 0.00059028706, Final residual = 2.9277032e-06, No Iterations 3
GAMG:  Solving for p, Initial residual = 0.00012782573, Final residual = 4.9379681e-07, No Iterations 3
GAMG:  Solving for p, Initial residual = 3.5068961e-05, Final residual = 1.8264946e-07, No Iterations 2
GAMG:  Solving for p, Initial residual = 1.0303553e-05, Final residual = 4.848403e-08, No Iterations 3
time step continuity errors : sum local = 3.186158e-07, global = -9.9111434e-08, cumulative = -1.4162702e-05
smoothSolver:  Solving for omega, Initial residual = 0.0068221481, Final residual = 0.00056082114, No Iterations 3
smoothSolver:  Solving for k, Initial residual = 0.020104138, Final residual = 0.0012097829, No Iterations 3
ExecutionTime = x.xx s  ClockTime = x.xx s

Time = 26

smoothSolver:  Solving for Ux, Initial residual = 0.015930503, Final residual = 0.00091102359, No Iterations 1
smoothSolver:  Solving for Uy, Initial residual = 0.0014582478, Final residual = 9.4686972e-05, No Iterations 1
smoothSolver:  Solving for Uz, Initial residual = 0.0028082392, Final residual = 0.00015646205, No Iterations 1
GAMG:  Solving for p, Initial residual = 0.073577484, Final residual = 0.00037411641, No Iterations 3
GAMG:  Solving for p, Initial residual = 0.0042926317, Final residual = 2.7398539e-05, No Iterations 3
GAMG:  Solving for p, Initial residual = 0.00052484402, Final residual = 3.918373e-06, No Iterations 3
GAMG:  Solving for p, Initial residual = 0.00011879859, Final residual = 5.8247282e-07, No Iterations 3
GAMG:  Solving for p, Initial residual = 3.2317854e-05, Final residual = 1.6126586e-07, No Iterations 3
GAMG:  Solving for p, Initial residual = 9.9219464e-06, Final residual = 7.479589e-08, No Iterations 2
time step continuity errors : sum local = 4.8454959e-07, global = 2.0224203e-07, cumulative = -1.396046e-05
smoothSolver:  Solving for omega, Initial residual = 0.0065985277, Final residual = 0.00054822407, No Iterations 3
smoothSolver:  Solving for k, Initial residual = 0.019692941, Final residual = 0.0012317758, No Iterations 3
ExecutionTime = x.xx s  ClockTime = x.xx s

Time = 27

smoothSolver:  Solving for Ux, Initial residual = 0.015009608, Final residual = 0.00077226387, No Iterations 1
smoothSolver:  Solving for Uy, Initial residual = 0.0013197887, Final residual = 8.9374923e-05, No Iterations 1
smoothSolver:  Solving for Uz, Initial residual = 0.0026728194, Final residual = 0.00013775152, No Iterations 1
GAMG:  Solving for p, Initial residual = 0.066984771, Final residual = 0.00038511758, No Iterations 3
GAMG:  Solving for p, Initial residual = 0.0039650704, Final residual = 3.254227e-05, No Iterations 3
GAMG:  Solving for p, Initial residual = 0.00051719049, Final residual = 4.275928e-06, No Iterations 3
GAMG:  Solving for p, Initial residual = 0.00011557671, Final residual = 6.4892275e-07, No Iterations 3
GAMG:  Solving for p, Initial residual = 3.1193357e-05, Final residual = 1.4218178e-07, No Iterations 3
GAMG:  Solving for p, Initial residual = 8.9633076e-06, Final residual = 7.4366945e-08, No Iterations 2
time step continuity errors : sum local = 4.7760323e-07, global = 1.8412842e-07, cumulative = -1.3776331e-05
smoothSolver:  Solving for omega, Initial residual = 0.0063744964, Final residual = 0.00053497514, No Iterations 3
smoothSolver:  Solving for k, Initial residual = 0.019294085, Final residual = 0.0012516592, No Iterations 3
ExecutionTime = x.xx s  ClockTime = x.xx s

Time = 28

smoothSolver:  Solving for Ux, Initial residual = 0.014740895, Final residual = 0.00067143915, No Iterations 1
smoothSolver:  Solving for Uy, Initial residual = 0.0011923871, Final residual = 8.505036e-05, No Iterations 1
smoothSolver:  Solving for Uz, Initial residual = 0.0025556923, Final residual = 0.00012622184, No Iterations 1
GAMG:  Solving for p, Initial residual = 0.060972338, Final residual = 0.00041859867, No Iterations 3
GAMG:  Solving for p, Initial residual = 0.0038306285, Final residual = 3.8165951e-05, No Iterations 3
GAMG:  Solving for p, Initial residual = 0.00049202553, Final residual = 2.35777e-06, No Iterations 4
GAMG:  Solving for p, Initial residual = 0.0001082416, Final residual = 1.0599445e-06, No Iterations 2
GAMG:  Solving for p, Initial residual = 2.8437767e-05, Final residual = 1.7838905e-07, No Iterations 3
GAMG:  Solving for p, Initial residual = 8.0778803e-06, Final residual = 3.5938126e-08, No Iterations 3
time step continuity errors : sum local = 2.3033064e-07, global = 8.7896638e-08, cumulative = -1.3688435e-05
smoothSolver:  Solving for omega, Initial residual = 0.0061450973, Final residual = 0.00052018889, No Iterations 3
smoothSolver:  Solving for k, Initial residual = 0.018907888, Final residual = 0.0012691925, No Iterations 3
ExecutionTime = x.xx s  ClockTime = x.xx s

Time = 29

smoothSolver:  Solving for Ux, Initial residual = 0.014370169, Final residual = 0.00062271612, No Iterations 1
smoothSolver:  Solving for Uy, Initial residual = 0.0011223697, Final residual = 8.0181575e-05, No Iterations 1
smoothSolver:  Solving for Uz, Initial residual = 0.0024231242, Final residual = 0.00012093265, No Iterations 1
GAMG:  Solving for p, Initial residual = 0.056210329, Final residual = 0.00046748909, No Iterations 3
GAMG:  Solving for p, Initial residual = 0.0034771279, Final residual = 1.8040455e-05, No Iterations 4
GAMG:  Solving for p, Initial residual = 0.00049022029, Final residual = 2.9768698e-06, No Iterations 3
GAMG:  Solving for p, Initial residual = 0.00011051624, Final residual = 5.6204896e-07, No Iterations 3
GAMG:  Solving for p, Initial residual = 2.9827886e-05, Final residual = 1.2627212e-07, No Iterations 3
GAMG:  Solving for p, Initial residual = 8.446227e-06, Final residual = 7.4888179e-08, No Iterations 2
time step continuity errors : sum local = 4.8085911e-07, global = 1.9086e-07, cumulative = -1.3497575e-05
smoothSolver:  Solving for omega, Initial residual = 0.0059017204, Final residual = 0.000503268, No Iterations 3
smoothSolver:  Solving for k, Initial residual = 0.018527937, Final residual = 0.0012840271, No Iterations 3
ExecutionTime = x.xx s  ClockTime = x.xx s

Time = 30

smoothSolver:  Solving for Ux, Initial residual = 0.013465696, Final residual = 0.00058746754, No Iterations 1
smoothSolver:  Solving for Uy, Initial residual = 0.0011034214, Final residual = 7.4285069e-05, No Iterations 1
smoothSolver:  Solving for Uz, Initial residual = 0.002283424, Final residual = 0.00011753954, No Iterations 1
GAMG:  Solving for p, Initial residual = 0.052349343, Final residual = 0.00045575657, No Iterations 3
GAMG:  Solving for p, Initial residual = 0.0032038048, Final residual = 1.8682582e-05, No Iterations 4
GAMG:  Solving for p, Initial residual = 0.00048266777, Final residual = 2.7207947e-06, No Iterations 3
GAMG:  Solving for p, Initial residual = 0.00010838574, Final residual = 5.292462e-07, No Iterations 3
GAMG:  Solving for p, Initial residual = 2.9906696e-05, Final residual = 2.9342868e-07, No Iterations 2
GAMG:  Solving for p, Initial residual = 8.6561077e-06, Final residual = 4.7435509e-08, No Iterations 3
time step continuity errors : sum local = 3.0527805e-07, global = 1.1843473e-07, cumulative = -1.337914e-05
smoothSolver:  Solving for omega, Initial residual = 0.0056497654, Final residual = 0.00048460268, No Iterations 3
smoothSolver:  Solving for k, Initial residual = 0.018159729, Final residual = 0.0012963222, No Iterations 3
ExecutionTime = x.xx s  ClockTime = x.xx s

Time = 31

smoothSolver:  Solving for Ux, Initial residual = 0.012219456, Final residual = 0.00054821621, No Iterations 1
smoothSolver:  Solving for Uy, Initial residual = 0.0010858062, Final residual = 6.8139043e-05, No Iterations 1
smoothSolver:  Solving for Uz, Initial residual = 0.0021765408, Final residual = 0.00011513244, No Iterations 1
GAMG:  Solving for p, Initial residual = 0.048536268, Final residual = 0.00042628082, No Iterations 3
GAMG:  Solving for p, Initial residual = 0.0029681957, Final residual = 1.8182092e-05, No Iterations 4
GAMG:  Solving for p, Initial residual = 0.00044633669, Final residual = 2.1924786e-06, No Iterations 3
GAMG:  Solving for p, Initial residual = 0.00010232487, Final residual = 4.3268582e-07, No Iterations 3
GAMG:  Solving for p, Initial residual = 2.8239926e-05, Final residual = 2.4390879e-07, No Iterations 2
GAMG:  Solving for p, Initial residual = 8.2959163e-06, Final residual = 4.5079134e-08, No Iterations 3
time step continuity errors : sum local = 2.8988609e-07, global = 1.0617287e-07, cumulative = -1.3272967e-05
smoothSolver:  Solving for omega, Initial residual = 0.0054006991, Final residual = 0.00046537565, No Iterations 3
smoothSolver:  Solving for k, Initial residual = 0.017813744, Final residual = 0.0013068711, No Iterations 3
ExecutionTime = x.xx s  ClockTime = x.xx s

Time = 32

smoothSolver:  Solving for Ux, Initial residual = 0.011011986, Final residual = 0.00050570214, No Iterations 1
smoothSolver:  Solving for Uy, Initial residual = 0.0010357724, Final residual = 6.2243745e-05, No Iterations 1
smoothSolver:  Solving for Uz, Initial residual = 0.0021008976, Final residual = 0.00011193114, No Iterations 1
GAMG:  Solving for p, Initial residual = 0.044986789, Final residual = 0.00034469016, No Iterations 3
GAMG:  Solving for p, Initial residual = 0.0026552419, Final residual = 1.2238501e-05, No Iterations 4
GAMG:  Solving for p, Initial residual = 0.00038915868, Final residual = 3.5597473e-06, No Iterations 2
GAMG:  Solving for p, Initial residual = 8.9883972e-05, Final residual = 6.9299429e-07, No Iterations 3
GAMG:  Solving for p, Initial residual = 2.4872166e-05, Final residual = 1.0711472e-07, No Iterations 3
GAMG:  Solving for p, Initial residual = 7.2589498e-06, Final residual = 6.3148838e-08, No Iterations 2
time step continuity errors : sum local = 4.0456753e-07, global = -1.3604796e-07, cumulative = -1.3409015e-05
smoothSolver:  Solving for omega, Initial residual = 0.0051571799, Final residual = 0.00044632151, No Iterations 3
smoothSolver:  Solving for k, Initial residual = 0.017493599, Final residual = 0.0013161068, No Iterations 3
ExecutionTime = x.xx s  ClockTime = x.xx s

Time = 33

smoothSolver:  Solving for Ux, Initial residual = 0.010127262, Final residual = 0.00046017538, No Iterations 1
smoothSolver:  Solving for Uy, Initial residual = 0.00094304209, Final residual = 5.7120413e-05, No Iterations 1
smoothSolver:  Solving for Uz, Initial residual = 0.002019094, Final residual = 0.00010630638, No Iterations 1
GAMG:  Solving for p, Initial residual = 0.041342719, Final residual = 0.00026554571, No Iterations 3
GAMG:  Solving for p, Initial residual = 0.0024151125, Final residual = 1.7851925e-05, No Iterations 3
GAMG:  Solving for p, Initial residual = 0.00031157785, Final residual = 2.1881144e-06, No Iterations 3
GAMG:  Solving for p, Initial residual = 6.5965719e-05, Final residual = 4.0039483e-07, No Iterations 3
GAMG:  Solving for p, Initial residual = 1.6925056e-05, Final residual = 6.7806794e-08, No Iterations 3
GAMG:  Solving for p, Initial residual = 4.6369499e-06, Final residual = 3.9246982e-08, No Iterations 2
time step continuity errors : sum local = 2.5003651e-07, global = -8.9366307e-08, cumulative = -1.3498381e-05
smoothSolver:  Solving for omega, Initial residual = 0.0049227339, Final residual = 0.00042717747, No Iterations 3
smoothSolver:  Solving for k, Initial residual = 0.017195142, Final residual = 0.0013234542, No Iterations 3
ExecutionTime = x.xx s  ClockTime = x.xx s

Time = 34

smoothSolver:  Solving for Ux, Initial residual = 0.0095772257, Final residual = 0.00041782095, No Iterations 1
smoothSolver:  Solving for Uy, Initial residual = 0.0008381762, Final residual = 5.2491141e-05, No Iterations 1
smoothSolver:  Solving for Uz, Initial residual = 0.0019168201, Final residual = 9.7927975e-05, No Iterations 1
GAMG:  Solving for p, Initial residual = 0.037399378, Final residual = 0.00021101904, No Iterations 3
GAMG:  Solving for p, Initial residual = 0.0022258942, Final residual = 1.00064e-05, No Iterations 4
GAMG:  Solving for p, Initial residual = 0.00029039355, Final residual = 1.2934118e-06, No Iterations 3
GAMG:  Solving for p, Initial residual = 6.0439996e-05, Final residual = 2.9468221e-07, No Iterations 3
GAMG:  Solving for p, Initial residual = 1.5402748e-05, Final residual = 1.207449e-07, No Iterations 2
GAMG:  Solving for p, Initial residual = 4.279331e-06, Final residual = 2.4850834e-08, No Iterations 3
time step continuity errors : sum local = 1.5726498e-07, global = -5.8266161e-08, cumulative = -1.3556648e-05
smoothSolver:  Solving for omega, Initial residual = 0.0046939878, Final residual = 0.00040777458, No Iterations 3
smoothSolver:  Solving for k, Initial residual = 0.016912556, Final residual = 0.0013285841, No Iterations 3
ExecutionTime = x.xx s  ClockTime = x.xx s

Time = 35

smoothSolver:  Solving for Ux, Initial residual = 0.0091478631, Final residual = 0.00038204439, No Iterations 1
smoothSolver:  Solving for Uy, Initial residual = 0.00075655303, Final residual = 4.7676453e-05, No Iterations 1
smoothSolver:  Solving for Uz, Initial residual = 0.001797349, Final residual = 8.8611481e-05, No Iterations 1
GAMG:  Solving for p, Initial residual = 0.033816538, Final residual = 0.00028305436, No Iterations 3
GAMG:  Solving for p, Initial residual = 0.0020502026, Final residual = 1.3121069e-05, No Iterations 4
GAMG:  Solving for p, Initial residual = 0.00026657904, Final residual = 1.7317109e-06, No Iterations 3
GAMG:  Solving for p, Initial residual = 5.6196806e-05, Final residual = 3.4947854e-07, No Iterations 3
GAMG:  Solving for p, Initial residual = 1.4035298e-05, Final residual = 1.2262978e-07, No Iterations 2
GAMG:  Solving for p, Initial residual = 3.8550366e-06, Final residual = 2.5900825e-08, No Iterations 3
time step continuity errors : sum local = 1.6298384e-07, global = 1.0633903e-08, cumulative = -1.3546014e-05
smoothSolver:  Solving for omega, Initial residual = 0.0044662187, Final residual = 0.00038802934, No Iterations 3
smoothSolver:  Solving for k, Initial residual = 0.016638378, Final residual = 0.0013312039, No Iterations 3
ExecutionTime = x.xx s  ClockTime = x.xx s

Time = 36

smoothSolver:  Solving for Ux, Initial residual = 0.008725103, Final residual = 0.00035044754, No Iterations 1
smoothSolver:  Solving for Uy, Initial residual = 0.00071460669, Final residual = 4.3186001e-05, No Iterations 1
smoothSolver:  Solving for Uz, Initial residual = 0.0016792722, Final residual = 8.0128072e-05, No Iterations 1
GAMG:  Solving for p, Initial residual = 0.031039524, Final residual = 0.00030573786, No Iterations 3
GAMG:  Solving for p, Initial residual = 0.0019033548, Final residual = 1.2155285e-05, No Iterations 4
GAMG:  Solving for p, Initial residual = 0.00026802675, Final residual = 1.5893473e-06, No Iterations 3
GAMG:  Solving for p, Initial residual = 5.6183733e-05, Final residual = 2.6350285e-07, No Iterations 3
GAMG:  Solving for p, Initial residual = 1.4319533e-05, Final residual = 7.1834297e-08, No Iterations 3
GAMG:  Solving for p, Initial residual = 3.9872263e-06, Final residual = 3.2869916e-08, No Iterations 2
time step continuity errors : sum local = 2.0623423e-07, global = 8.1373794e-08, cumulative = -1.346464e-05
smoothSolver:  Solving for omega, Initial residual = 0.0042373971, Final residual = 0.00036798156, No Iterations 3
smoothSolver:  Solving for k, Initial residual = 0.016364094, Final residual = 0.0013310042, No Iterations 3
ExecutionTime = x.xx s  ClockTime = x.xx s

Time = 37

smoothSolver:  Solving for Ux, Initial residual = 0.0082448338, Final residual = 0.00032738612, No Iterations 1
smoothSolver:  Solving for Uy, Initial residual = 0.0006808695, Final residual = 3.8518878e-05, No Iterations 1
smoothSolver:  Solving for Uz, Initial residual = 0.0015831312, Final residual = 7.3485793e-05, No Iterations 1
GAMG:  Solving for p, Initial residual = 0.028396881, Final residual = 0.00012002807, No Iterations 4
GAMG:  Solving for p, Initial residual = 0.0017801069, Final residual = 1.4929305e-05, No Iterations 3
GAMG:  Solving for p, Initial residual = 0.00023965356, Final residual = 1.8713141e-06, No Iterations 3
GAMG:  Solving for p, Initial residual = 5.2841966e-05, Final residual = 2.9648142e-07, No Iterations 3
GAMG:  Solving for p, Initial residual = 1.2806128e-05, Final residual = 7.73066e-08, No Iterations 3
GAMG:  Solving for p, Initial residual = 3.6242299e-06, Final residual = 3.1257741e-08, No Iterations 2
time step continuity errors : sum local = 1.9610843e-07, global = 7.828251e-08, cumulative = -1.3386357e-05
smoothSolver:  Solving for omega, Initial residual = 0.0040081988, Final residual = 0.00034787095, No Iterations 3
smoothSolver:  Solving for k, Initial residual = 0.0160895, Final residual = 0.0013282186, No Iterations 3
ExecutionTime = x.xx s  ClockTime = x.xx s

Time = 38

smoothSolver:  Solving for Ux, Initial residual = 0.0077183846, Final residual = 0.00030273923, No Iterations 1
smoothSolver:  Solving for Uy, Initial residual = 0.00063930223, Final residual = 3.3584845e-05, No Iterations 1
smoothSolver:  Solving for Uz, Initial residual = 0.001514904, Final residual = 6.8595276e-05, No Iterations 1
GAMG:  Solving for p, Initial residual = 0.025823216, Final residual = 0.00010310454, No Iterations 4
GAMG:  Solving for p, Initial residual = 0.0016283949, Final residual = 1.3636559e-05, No Iterations 3
GAMG:  Solving for p, Initial residual = 0.00022290751, Final residual = 1.5134251e-06, No Iterations 3
GAMG:  Solving for p, Initial residual = 4.7097499e-05, Final residual = 2.3942283e-07, No Iterations 3
GAMG:  Solving for p, Initial residual = 1.188859e-05, Final residual = 6.4756936e-08, No Iterations 3
GAMG:  Solving for p, Initial residual = 3.2055652e-06, Final residual = 2.5157589e-08, No Iterations 2
time step continuity errors : sum local = 1.5805254e-07, global = 6.738745e-08, cumulative = -1.331897e-05
smoothSolver:  Solving for omega, Initial residual = 0.0037827118, Final residual = 0.00032803129, No Iterations 3
smoothSolver:  Solving for k, Initial residual = 0.015818366, Final residual = 0.0013232625, No Iterations 3
ExecutionTime = x.xx s  ClockTime = x.xx s

Time = 39

smoothSolver:  Solving for Ux, Initial residual = 0.006944459, Final residual = 0.00027222497, No Iterations 1
smoothSolver:  Solving for Uy, Initial residual = 0.00059472429, Final residual = 2.9043402e-05, No Iterations 1
smoothSolver:  Solving for Uz, Initial residual = 0.0014568312, Final residual = 6.4941588e-05, No Iterations 1
GAMG:  Solving for p, Initial residual = 0.023863094, Final residual = 0.00021060688, No Iterations 3
GAMG:  Solving for p, Initial residual = 0.001436531, Final residual = 5.6908328e-06, No Iterations 4
GAMG:  Solving for p, Initial residual = 0.00019949583, Final residual = 1.9454445e-06, No Iterations 2
GAMG:  Solving for p, Initial residual = 4.1122069e-05, Final residual = 2.9521676e-07, No Iterations 3
GAMG:  Solving for p, Initial residual = 1.0545854e-05, Final residual = 4.8184745e-08, No Iterations 3
GAMG:  Solving for p, Initial residual = 2.7906938e-06, Final residual = 2.5681509e-08, No Iterations 2
time step continuity errors : sum local = 1.6147541e-07, global = -5.669615e-08, cumulative = -1.3375666e-05
smoothSolver:  Solving for omega, Initial residual = 0.0035633123, Final residual = 0.00030874416, No Iterations 3
smoothSolver:  Solving for k, Initial residual = 0.015551447, Final residual = 0.0013163112, No Iterations 3
ExecutionTime = x.xx s  ClockTime = x.xx s

Time = 40

smoothSolver:  Solving for Ux, Initial residual = 0.0061747142, Final residual = 0.0002420983, No Iterations 1
smoothSolver:  Solving for Uy, Initial residual = 0.00054713582, Final residual = 2.5293335e-05, No Iterations 1
smoothSolver:  Solving for Uz, Initial residual = 0.001395424, Final residual = 6.1709758e-05, No Iterations 1
GAMG:  Solving for p, Initial residual = 0.022120025, Final residual = 0.00011493226, No Iterations 3
GAMG:  Solving for p, Initial residual = 0.001319334, Final residual = 1.0554267e-05, No Iterations 3
GAMG:  Solving for p, Initial residual = 0.00017751389, Final residual = 1.3186294e-06, No Iterations 3
GAMG:  Solving for p, Initial residual = 3.6831647e-05, Final residual = 2.2848975e-07, No Iterations 3
GAMG:  Solving for p, Initial residual = 9.0592053e-06, Final residual = 4.0505122e-08, No Iterations 3
GAMG:  Solving for p, Initial residual = 2.3908506e-06, Final residual = 2.1121473e-08, No Iterations 2
time step continuity errors : sum local = 1.3267325e-07, global = -4.6778203e-08, cumulative = -1.3422444e-05
smoothSolver:  Solving for omega, Initial residual = 0.0033530011, Final residual = 0.00029014182, No Iterations 3
smoothSolver:  Solving for k, Initial residual = 0.015292734, Final residual = 0.0013078357, No Iterations 3
ExecutionTime = x.xx s  ClockTime = x.xx s

Time = 41

smoothSolver:  Solving for Ux, Initial residual = 0.0055978937, Final residual = 0.00021692236, No Iterations 1
smoothSolver:  Solving for Uy, Initial residual = 0.00049829944, Final residual = 2.2613165e-05, No Iterations 1
smoothSolver:  Solving for Uz, Initial residual = 0.0013251874, Final residual = 5.8078424e-05, No Iterations 1
GAMG:  Solving for p, Initial residual = 0.020016814, Final residual = 0.00010451339, No Iterations 3
GAMG:  Solving for p, Initial residual = 0.0012539879, Final residual = 1.0493948e-05, No Iterations 3
GAMG:  Solving for p, Initial residual = 0.00016191232, Final residual = 1.3402722e-06, No Iterations 3
GAMG:  Solving for p, Initial residual = 3.3030127e-05, Final residual = 2.2526921e-07, No Iterations 3
GAMG:  Solving for p, Initial residual = 8.1627078e-06, Final residual = 3.8575251e-08, No Iterations 3
GAMG:  Solving for p, Initial residual = 2.1896042e-06, Final residual = 1.9559118e-08, No Iterations 2
time step continuity errors : sum local = 1.2244113e-07, global = -4.446054e-08, cumulative = -1.3466905e-05
smoothSolver:  Solving for omega, Initial residual = 0.0031498509, Final residual = 0.00027223363, No Iterations 3
smoothSolver:  Solving for k, Initial residual = 0.015033667, Final residual = 0.0012974073, No Iterations 3
ExecutionTime = x.xx s  ClockTime = x.xx s

Time = 42

smoothSolver:  Solving for Ux, Initial residual = 0.0052307106, Final residual = 0.00020078795, No Iterations 1
smoothSolver:  Solving for Uy, Initial residual = 0.00045153524, Final residual = 2.0962877e-05, No Iterations 1
smoothSolver:  Solving for Uz, Initial residual = 0.0012489731, Final residual = 5.3934004e-05, No Iterations 1
GAMG:  Solving for p, Initial residual = 0.017806035, Final residual = 0.00016062478, No Iterations 3
GAMG:  Solving for p, Initial residual = 0.0011880707, Final residual = 5.5923256e-06, No Iterations 4
GAMG:  Solving for p, Initial residual = 0.00015760829, Final residual = 7.8972363e-07, No Iterations 3
GAMG:  Solving for p, Initial residual = 3.2506581e-05, Final residual = 1.5148038e-07, No Iterations 3
GAMG:  Solving for p, Initial residual = 8.2091849e-06, Final residual = 7.0613097e-08, No Iterations 2
GAMG:  Solving for p, Initial residual = 2.1748879e-06, Final residual = 1.2456786e-08, No Iterations 3
time step continuity errors : sum local = 7.7558197e-08, global = -2.9830219e-08, cumulative = -1.3496735e-05
smoothSolver:  Solving for omega, Initial residual = 0.0029531606, Final residual = 0.00025506726, No Iterations 3
smoothSolver:  Solving for k, Initial residual = 0.014772136, Final residual = 0.0012850665, No Iterations 3
ExecutionTime = x.xx s  ClockTime = x.xx s

Time = 43

smoothSolver:  Solving for Ux, Initial residual = 0.0050197914, Final residual = 0.00019142443, No Iterations 1
smoothSolver:  Solving for Uy, Initial residual = 0.00041676585, Final residual = 1.9754359e-05, No Iterations 1
smoothSolver:  Solving for Uz, Initial residual = 0.0011704544, Final residual = 4.9605646e-05, No Iterations 1
GAMG:  Solving for p, Initial residual = 0.01615313, Final residual = 6.9049691e-05, No Iterations 4
GAMG:  Solving for p, Initial residual = 0.0010316448, Final residual = 9.5018911e-06, No Iterations 3
GAMG:  Solving for p, Initial residual = 0.0001434361, Final residual = 1.3292898e-06, No Iterations 3
GAMG:  Solving for p, Initial residual = 3.1857387e-05, Final residual = 1.862187e-07, No Iterations 3
GAMG:  Solving for p, Initial residual = 8.288612e-06, Final residual = 7.7656448e-08, No Iterations 2
GAMG:  Solving for p, Initial residual = 2.2564838e-06, Final residual = 1.31269e-08, No Iterations 3
time step continuity errors : sum local = 8.1267294e-08, global = 3.4439078e-08, cumulative = -1.3462296e-05
smoothSolver:  Solving for omega, Initial residual = 0.0027640324, Final residual = 0.00023857468, No Iterations 3
smoothSolver:  Solving for k, Initial residual = 0.014504915, Final residual = 0.0012706967, No Iterations 3
ExecutionTime = x.xx s  ClockTime = x.xx s

Time = 44

smoothSolver:  Solving for Ux, Initial residual = 0.0049519994, Final residual = 0.00018501348, No Iterations 1
smoothSolver:  Solving for Uy, Initial residual = 0.0003958689, Final residual = 1.8601e-05, No Iterations 1
smoothSolver:  Solving for Uz, Initial residual = 0.0010979339, Final residual = 4.5708291e-05, No Iterations 1
GAMG:  Solving for p, Initial residual = 0.01495708, Final residual = 6.4088516e-05, No Iterations 4
GAMG:  Solving for p, Initial residual = 0.00090744946, Final residual = 7.8118643e-06, No Iterations 3
GAMG:  Solving for p, Initial residual = 0.00013091532, Final residual = 1.0808372e-06, No Iterations 3
GAMG:  Solving for p, Initial residual = 2.936455e-05, Final residual = 1.6080581e-07, No Iterations 3
GAMG:  Solving for p, Initial residual = 7.6770472e-06, Final residual = 4.8335976e-08, No Iterations 3
GAMG:  Solving for p, Initial residual = 2.0551203e-06, Final residual = 1.8582174e-08, No Iterations 2
time step continuity errors : sum local = 1.1456421e-07, global = 4.705168e-08, cumulative = -1.3415244e-05
smoothSolver:  Solving for omega, Initial residual = 0.0025824544, Final residual = 0.00022278708, No Iterations 3
smoothSolver:  Solving for k, Initial residual = 0.014232019, Final residual = 0.0012544673, No Iterations 3
ExecutionTime = x.xx s  ClockTime = x.xx s

Time = 45

smoothSolver:  Solving for Ux, Initial residual = 0.0047328356, Final residual = 0.00017570485, No Iterations 1
smoothSolver:  Solving for Uy, Initial residual = 0.00037477293, Final residual = 1.7209943e-05, No Iterations 1
smoothSolver:  Solving for Uz, Initial residual = 0.0010342892, Final residual = 4.2234866e-05, No Iterations 1
GAMG:  Solving for p, Initial residual = 0.013817278, Final residual = 5.7408674e-05, No Iterations 4
GAMG:  Solving for p, Initial residual = 0.00085691466, Final residual = 6.9114192e-06, No Iterations 3
GAMG:  Solving for p, Initial residual = 0.00012306683, Final residual = 1.0925751e-06, No Iterations 3
GAMG:  Solving for p, Initial residual = 2.712601e-05, Final residual = 1.5007659e-07, No Iterations 3
GAMG:  Solving for p, Initial residual = 7.090955e-06, Final residual = 5.0692078e-08, No Iterations 3
GAMG:  Solving for p, Initial residual = 1.9242843e-06, Final residual = 1.824421e-08, No Iterations 2
time step continuity errors : sum local = 1.1238952e-07, global = 4.4007305e-08, cumulative = -1.3371237e-05
smoothSolver:  Solving for omega, Initial residual = 0.0024090788, Final residual = 0.00020773982, No Iterations 3
smoothSolver:  Solving for k, Initial residual = 0.013953113, Final residual = 0.0012365013, No Iterations 3
ExecutionTime = x.xx s  ClockTime = x.xx s

Time = 46

smoothSolver:  Solving for Ux, Initial residual = 0.004338473, Final residual = 0.00016246487, No Iterations 1
smoothSolver:  Solving for Uy, Initial residual = 0.00034731508, Final residual = 1.5504062e-05, No Iterations 1
smoothSolver:  Solving for Uz, Initial residual = 0.00098083984, Final residual = 3.9360744e-05, No Iterations 1
GAMG:  Solving for p, Initial residual = 0.012593962, Final residual = 0.00011725953, No Iterations 3
GAMG:  Solving for p, Initial residual = 0.00083460116, Final residual = 4.7671453e-06, No Iterations 4
GAMG:  Solving for p, Initial residual = 0.00011942302, Final residual = 6.5998994e-07, No Iterations 3
GAMG:  Solving for p, Initial residual = 2.4863886e-05, Final residual = 1.1222223e-07, No Iterations 3
GAMG:  Solving for p, Initial residual = 6.2263916e-06, Final residual = 5.8104105e-08, No Iterations 2
GAMG:  Solving for p, Initial residual = 1.6575361e-06, Final residual = 1.1405731e-08, No Iterations 3
time step continuity errors : sum local = 7.0359221e-08, global = -2.2801183e-08, cumulative = -1.3394038e-05
smoothSolver:  Solving for omega, Initial residual = 0.002243979, Final residual = 0.0001935052, No Iterations 3
smoothSolver:  Solving for k, Initial residual = 0.013669383, Final residual = 0.0012169117, No Iterations 3
ExecutionTime = x.xx s  ClockTime = x.xx s

Time = 47

smoothSolver:  Solving for Ux, Initial residual = 0.0038653268, Final residual = 0.00014699857, No Iterations 1
smoothSolver:  Solving for Uy, Initial residual = 0.00032047724, Final residual = 1.3975324e-05, No Iterations 1
smoothSolver:  Solving for Uz, Initial residual = 0.0009328394, Final residual = 3.6847109e-05, No Iterations 1
GAMG:  Solving for p, Initial residual = 0.011477842, Final residual = 6.933625e-05, No Iterations 3
GAMG:  Solving for p, Initial residual = 0.00073970978, Final residual = 5.8841243e-06, No Iterations 3
GAMG:  Solving for p, Initial residual = 0.00010347214, Final residual = 8.7399624e-07, No Iterations 3
GAMG:  Solving for p, Initial residual = 2.2004178e-05, Final residual = 1.3375602e-07, No Iterations 3
GAMG:  Solving for p, Initial residual = 5.1641702e-06, Final residual = 3.1755381e-08, No Iterations 3
GAMG:  Solving for p, Initial residual = 1.3825601e-06, Final residual = 1.3472911e-08, No Iterations 2
time step continuity errors : sum local = 8.3263147e-08, global = -2.9764638e-08, cumulative = -1.3423803e-05
smoothSolver:  Solving for omega, Initial residual = 0.002088649, Final residual = 0.00018012601, No Iterations 3
smoothSolver:  Solving for k, Initial residual = 0.013384248, Final residual = 0.001195956, No Iterations 3
ExecutionTime = x.xx s  ClockTime = x.xx s

Time = 48

smoothSolver:  Solving for Ux, Initial residual = 0.003450265, Final residual = 0.00013233697, No Iterations 1
smoothSolver:  Solving for Uy, Initial residual = 0.00030050734, Final residual = 1.2914381e-05, No Iterations 1
smoothSolver:  Solving for Uz, Initial residual = 0.00088842789, Final residual = 3.4498894e-05, No Iterations 1
GAMG:  Solving for p, Initial residual = 0.010603032, Final residual = 4.7380245e-05, No Iterations 3
GAMG:  Solving for p, Initial residual = 0.00068472968, Final residual = 5.5396178e-06, No Iterations 3
GAMG:  Solving for p, Initial residual = 9.5918726e-05, Final residual = 8.102844e-07, No Iterations 3
GAMG:  Solving for p, Initial residual = 2.1201687e-05, Final residual = 1.2841373e-07, No Iterations 3
GAMG:  Solving for p, Initial residual = 5.2097985e-06, Final residual = 2.76394e-08, No Iterations 3
GAMG:  Solving for p, Initial residual = 1.4101347e-06, Final residual = 1.3475786e-08, No Iterations 2
time step continuity errors : sum local = 8.3346069e-08, global = -2.9042392e-08, cumulative = -1.3452845e-05
smoothSolver:  Solving for omega, Initial residual = 0.0019433923, Final residual = 0.00016753177, No Iterations 3
smoothSolver:  Solving for k, Initial residual = 0.013097358, Final residual = 0.0011735387, No Iterations 3
ExecutionTime = x.xx s  ClockTime = x.xx s

Time = 49

smoothSolver:  Solving for Ux, Initial residual = 0.0031682917, Final residual = 0.00012134656, No Iterations 1
smoothSolver:  Solving for Uy, Initial residual = 0.00028069112, Final residual = 1.2277594e-05, No Iterations 1
smoothSolver:  Solving for Uz, Initial residual = 0.00084373935, Final residual = 3.2238034e-05, No Iterations 1
GAMG:  Solving for p, Initial residual = 0.0097581935, Final residual = 5.9640167e-05, No Iterations 3
GAMG:  Solving for p, Initial residual = 0.00063164693, Final residual = 5.8192467e-06, No Iterations 3
GAMG:  Solving for p, Initial residual = 8.8078142e-05, Final residual = 7.9465388e-07, No Iterations 3
GAMG:  Solving for p, Initial residual = 1.9909471e-05, Final residual = 1.2073577e-07, No Iterations 3
GAMG:  Solving for p, Initial residual = 4.9593782e-06, Final residual = 2.6640914e-08, No Iterations 3
GAMG:  Solving for p, Initial residual = 1.3490223e-06, Final residual = 1.2497985e-08, No Iterations 2
time step continuity errors : sum local = 7.7224259e-08, global = -2.8279888e-08, cumulative = -1.3481125e-05
smoothSolver:  Solving for omega, Initial residual = 0.0018083832, Final residual = 0.00015568332, No Iterations 3
smoothSolver:  Solving for k, Initial residual = 0.012806697, Final residual = 0.0011495321, No Iterations 3
ExecutionTime = x.xx s  ClockTime = x.xx s

Time = 50

smoothSolver:  Solving for Ux, Initial residual = 0.0030121127, Final residual = 0.00011449079, No Iterations 1
smoothSolver:  Solving for Uy, Initial residual = 0.00025957229, Final residual = 1.1757521e-05, No Iterations 1
smoothSolver:  Solving for Uz, Initial residual = 0.00079855246, Final residual = 2.9991627e-05, No Iterations 1
GAMG:  Solving for p, Initial residual = 0.0088267642, Final residual = 3.1010642e-05, No Iterations 4
GAMG:  Solving for p, Initial residual = 0.00054710697, Final residual = 3.8999629e-06, No Iterations 3
GAMG:  Solving for p, Initial residual = 7.2768249e-05, Final residual = 6.006369e-07, No Iterations 3
GAMG:  Solving for p, Initial residual = 1.7018148e-05, Final residual = 9.6773618e-08, No Iterations 3
GAMG:  Solving for p, Initial residual = 4.2773803e-06, Final residual = 2.1397598e-08, No Iterations 3
GAMG:  Solving for p, Initial residual = 1.1936256e-06, Final residual = 1.0352901e-08, No Iterations 2
time step continuity errors : sum local = 6.3820786e-08, global = -2.4106951e-08, cumulative = -1.3505232e-05
smoothSolver:  Solving for omega, Initial residual = 0.001682821, Final residual = 0.00014453156, No Iterations 3
smoothSolver:  Solving for k, Initial residual = 0.012511331, Final residual = 0.0011238471, No Iterations 3
ExecutionTime = x.xx s  ClockTime = x.xx s

Time = 51

smoothSolver:  Solving for Ux, Initial residual = 0.0029260913, Final residual = 0.00011000321, No Iterations 1
smoothSolver:  Solving for Uy, Initial residual = 0.00024065663, Final residual = 1.1226082e-05, No Iterations 1
smoothSolver:  Solving for Uz, Initial residual = 0.00075163437, Final residual = 2.777368e-05, No Iterations 1
GAMG:  Solving for p, Initial residual = 0.008012416, Final residual = 4.1499302e-05, No Iterations 4
GAMG:  Solving for p, Initial residual = 0.00050448142, Final residual = 3.6206717e-06, No Iterations 3
GAMG:  Solving for p, Initial residual = 6.6549495e-05, Final residual = 5.578702e-07, No Iterations 3
GAMG:  Solving for p, Initial residual = 1.5401895e-05, Final residual = 8.8325883e-08, No Iterations 3
GAMG:  Solving for p, Initial residual = 3.8428664e-06, Final residual = 2.14196e-08, No Iterations 3
GAMG:  Solving for p, Initial residual = 1.055504e-06, Final residual = 9.378557e-09, No Iterations 2
time step continuity errors : sum local = 5.7646123e-08, global = -2.2294017e-08, cumulative = -1.3527526e-05
smoothSolver:  Solving for omega, Initial residual = 0.0015651423, Final residual = 0.00013398958, No Iterations 3
smoothSolver:  Solving for k, Initial residual = 0.01220985, Final residual = 0.0010965193, No Iterations 3
ExecutionTime = x.xx s  ClockTime = x.xx s

Time = 52

smoothSolver:  Solving for Ux, Initial residual = 0.0028535832, Final residual = 0.0001064799, No Iterations 1
smoothSolver:  Solving for Uy, Initial residual = 0.00022681511, Final residual = 1.075905e-05, No Iterations 1
smoothSolver:  Solving for Uz, Initial residual = 0.00070470266, Final residual = 2.5706825e-05, No Iterations 1
GAMG:  Solving for p, Initial residual = 0.0073528448, Final residual = 3.6718829e-05, No Iterations 4
GAMG:  Solving for p, Initial residual = 0.00047549617, Final residual = 3.4167824e-06, No Iterations 3
GAMG:  Solving for p, Initial residual = 6.7628451e-05, Final residual = 5.4464916e-07, No Iterations 3
GAMG:  Solving for p, Initial residual = 1.5712945e-05, Final residual = 8.5375358e-08, No Iterations 3
GAMG:  Solving for p, Initial residual = 3.9007582e-06, Final residual = 2.4326897e-08, No Iterations 3
GAMG:  Solving for p, Initial residual = 1.0472754e-06, Final residual = 9.7303631e-09, No Iterations 2
time step continuity errors : sum local = 5.9670071e-08, global = -2.3863548e-08, cumulative = -1.355139e-05
smoothSolver:  Solving for omega, Initial residual = 0.0014541562, Final residual = 0.00012391099, No Iterations 3
smoothSolver:  Solving for k, Initial residual = 0.0118969, Final residual = 0.0010671823, No Iterations 3
ExecutionTime = x.xx s  ClockTime = x.xx s

Time = 53

smoothSolver:  Solving for Ux, Initial residual = 0.0027362322, Final residual = 0.00010239448, No Iterations 1
smoothSolver:  Solving for Uy, Initial residual = 0.00021666076, Final residual = 1.0353643e-05, No Iterations 1
smoothSolver:  Solving for Uz, Initial residual = 0.00065873288, Final residual = 2.3877027e-05, No Iterations 1
GAMG:  Solving for p, Initial residual = 0.0069284989, Final residual = 3.119597e-05, No Iterations 4
GAMG:  Solving for p, Initial residual = 0.00045568228, Final residual = 2.668146e-06, No Iterations 3
[...]
ExecutionTime = x.xx s  ClockTime = x.xx s

Time = 91

smoothSolver:  Solving for Ux, Initial residual = 0.00014492587, Final residual = 5.9722905e-06, No Iterations 1
smoothSolver:  Solving for Uy, Initial residual = 1.4454818e-05, Final residual = 7.4043273e-07, No Iterations 1
smoothSolver:  Solving for Uz, Initial residual = 5.4227631e-05, Final residual = 2.2193356e-06, No Iterations 1
GAMG:  Solving for p, Initial residual = 0.00018866256, Final residual = 1.852262e-06, No Iterations 3
GAMG:  Solving for p, Initial residual = 1.1813119e-05, Final residual = 1.0673536e-07, No Iterations 4
GAMG:  Solving for p, Initial residual = 1.8455048e-06, Final residual = 1.3177994e-08, No Iterations 3
GAMG:  Solving for p, Initial residual = 4.0407028e-07, Final residual = 5.4880808e-09, No Iterations 2
GAMG:  Solving for p, Initial residual = 9.639997e-08, Final residual = 5.0685803e-09, No Iterations 1
GAMG:  Solving for p, Initial residual = 2.8019144e-08, Final residual = 2.4965179e-09, No Iterations 1
time step continuity errors : sum local = 1.5293788e-08, global = 6.6449964e-09, cumulative = -1.3728337e-05
smoothSolver:  Solving for omega, Initial residual = 4.3282736e-05, Final residual = 2.9934718e-06, No Iterations 3
smoothSolver:  Solving for k, Initial residual = 0.00053221214, Final residual = 3.5203826e-05, No Iterations 3
ExecutionTime = x.xx s  ClockTime = x.xx s

Time = 92

smoothSolver:  Solving for Ux, Initial residual = 0.00013460719, Final residual = 5.4810156e-06, No Iterations 1
smoothSolver:  Solving for Uy, Initial residual = 1.3560156e-05, Final residual = 6.8330075e-07, No Iterations 1
smoothSolver:  Solving for Uz, Initial residual = 4.9325704e-05, Final residual = 1.9915077e-06, No Iterations 1
GAMG:  Solving for p, Initial residual = 0.00017208814, Final residual = 1.6865375e-06, No Iterations 3
GAMG:  Solving for p, Initial residual = 1.0914992e-05, Final residual = 8.1913059e-08, No Iterations 4
GAMG:  Solving for p, Initial residual = 1.6860487e-06, Final residual = 1.0743712e-08, No Iterations 3
GAMG:  Solving for p, Initial residual = 3.7012701e-07, Final residual = 4.803205e-09, No Iterations 2
GAMG:  Solving for p, Initial residual = 8.7084437e-08, Final residual = 4.5449736e-09, No Iterations 1
GAMG:  Solving for p, Initial residual = 2.5367077e-08, Final residual = 2.1905703e-09, No Iterations 1
time step continuity errors : sum local = 1.3417203e-08, global = 5.8551369e-09, cumulative = -1.3722482e-05
smoothSolver:  Solving for omega, Initial residual = 3.9383521e-05, Final residual = 2.7012572e-06, No Iterations 3
smoothSolver:  Solving for k, Initial residual = 0.00046560042, Final residual = 3.0806736e-05, No Iterations 3
ExecutionTime = x.xx s  ClockTime = x.xx s

Time = 93

smoothSolver:  Solving for Ux, Initial residual = 0.00012495032, Final residual = 5.0191667e-06, No Iterations 1
smoothSolver:  Solving for Uy, Initial residual = 1.2671705e-05, Final residual = 6.2715647e-07, No Iterations 1
smoothSolver:  Solving for Uz, Initial residual = 4.4695548e-05, Final residual = 1.7801613e-06, No Iterations 1
GAMG:  Solving for p, Initial residual = 0.000157547, Final residual = 1.560611e-06, No Iterations 3
GAMG:  Solving for p, Initial residual = 1.0156246e-05, Final residual = 6.5263002e-08, No Iterations 4
GAMG:  Solving for p, Initial residual = 1.5376569e-06, Final residual = 8.9769784e-09, No Iterations 3
GAMG:  Solving for p, Initial residual = 3.3690325e-07, Final residual = 4.2781134e-09, No Iterations 2
GAMG:  Solving for p, Initial residual = 7.9157678e-08, Final residual = 4.0702625e-09, No Iterations 1
GAMG:  Solving for p, Initial residual = 2.2951034e-08, Final residual = 1.9377799e-09, No Iterations 1
time step continuity errors : sum local = 1.1866998e-08, global = 5.1680766e-09, cumulative = -1.3717314e-05
smoothSolver:  Solving for omega, Initial residual = 3.5762041e-05, Final residual = 2.4297098e-06, No Iterations 3
smoothSolver:  Solving for k, Initial residual = 0.00040736363, Final residual = 2.6987134e-05, No Iterations 3
ExecutionTime = x.xx s  ClockTime = x.xx s

Time = 94

smoothSolver:  Solving for Ux, Initial residual = 0.00011542752, Final residual = 4.5852898e-06, No Iterations 1
smoothSolver:  Solving for Uy, Initial residual = 1.1768257e-05, Final residual = 5.7248e-07, No Iterations 1
smoothSolver:  Solving for Uz, Initial residual = 4.0328773e-05, Final residual = 1.5853299e-06, No Iterations 1
GAMG:  Solving for p, Initial residual = 0.00014511873, Final residual = 6.3815145e-07, No Iterations 4
GAMG:  Solving for p, Initial residual = 8.9459645e-06, Final residual = 7.8741038e-08, No Iterations 3
GAMG:  Solving for p, Initial residual = 1.2983093e-06, Final residual = 1.027819e-08, No Iterations 3
GAMG:  Solving for p, Initial residual = 2.9588979e-07, Final residual = 4.4147008e-09, No Iterations 2
GAMG:  Solving for p, Initial residual = 6.7422402e-08, Final residual = 3.7791286e-09, No Iterations 1
GAMG:  Solving for p, Initial residual = 1.9667212e-08, Final residual = 1.8072274e-09, No Iterations 1
time step continuity errors : sum local = 1.1065922e-08, global = 4.7375797e-09, cumulative = -1.3712576e-05
smoothSolver:  Solving for omega, Initial residual = 3.2383058e-05, Final residual = 2.1787391e-06, No Iterations 3
smoothSolver:  Solving for k, Initial residual = 0.00035656949, Final residual = 2.3658314e-05, No Iterations 3
ExecutionTime = x.xx s  ClockTime = x.xx s

Time = 95

smoothSolver:  Solving for Ux, Initial residual = 0.00010600576, Final residual = 4.1845834e-06, No Iterations 1
smoothSolver:  Solving for Uy, Initial residual = 1.0865893e-05, Final residual = 5.2004595e-07, No Iterations 1
smoothSolver:  Solving for Uz, Initial residual = 3.6234241e-05, Final residual = 1.406566e-06, No Iterations 1
GAMG:  Solving for p, Initial residual = 0.00013384377, Final residual = 6.1113467e-07, No Iterations 4
GAMG:  Solving for p, Initial residual = 8.2473134e-06, Final residual = 7.3718265e-08, No Iterations 3
GAMG:  Solving for p, Initial residual = 1.2083594e-06, Final residual = 9.709095e-09, No Iterations 3
GAMG:  Solving for p, Initial residual = 2.7460185e-07, Final residual = 4.1185009e-09, No Iterations 2
GAMG:  Solving for p, Initial residual = 6.2961186e-08, Final residual = 3.5151376e-09, No Iterations 1
GAMG:  Solving for p, Initial residual = 1.8221047e-08, Final residual = 1.6673307e-09, No Iterations 1
time step continuity errors : sum local = 1.0208016e-08, global = 4.3551181e-09, cumulative = -1.3708221e-05
smoothSolver:  Solving for omega, Initial residual = 2.9228006e-05, Final residual = 1.9478592e-06, No Iterations 3
smoothSolver:  Solving for k, Initial residual = 0.00031221213, Final residual = 2.0755931e-05, No Iterations 3
ExecutionTime = x.xx s  ClockTime = x.xx s

Time = 96

smoothSolver:  Solving for Ux, Initial residual = 9.6819134e-05, Final residual = 3.8159666e-06, No Iterations 1
smoothSolver:  Solving for Uy, Initial residual = 9.9792912e-06, Final residual = 4.7017263e-07, No Iterations 1
smoothSolver:  Solving for Uz, Initial residual = 3.241756e-05, Final residual = 1.2436651e-06, No Iterations 1
GAMG:  Solving for p, Initial residual = 0.00012318426, Final residual = 5.8390023e-07, No Iterations 4
GAMG:  Solving for p, Initial residual = 7.5792564e-06, Final residual = 6.8629427e-08, No Iterations 3
GAMG:  Solving for p, Initial residual = 1.1249759e-06, Final residual = 9.1686364e-09, No Iterations 3
GAMG:  Solving for p, Initial residual = 2.5262139e-07, Final residual = 3.8261931e-09, No Iterations 2
GAMG:  Solving for p, Initial residual = 5.805077e-08, Final residual = 3.2770298e-09, No Iterations 1
GAMG:  Solving for p, Initial residual = 1.6732841e-08, Final residual = 1.5469783e-09, No Iterations 1
time step continuity errors : sum local = 9.470107e-09, global = 4.008271e-09, cumulative = -1.3704213e-05
smoothSolver:  Solving for omega, Initial residual = 2.630008e-05, Final residual = 1.7367141e-06, No Iterations 3
smoothSolver:  Solving for k, Initial residual = 0.00027373887, Final residual = 1.8222441e-05, No Iterations 3
ExecutionTime = x.xx s  ClockTime = x.xx s

Time = 97

smoothSolver:  Solving for Ux, Initial residual = 8.8015012e-05, Final residual = 3.4781436e-06, No Iterations 1
smoothSolver:  Solving for Uy, Initial residual = 9.1295821e-06, Final residual = 4.2352462e-07, No Iterations 1
smoothSolver:  Solving for Uz, Initial residual = 2.8883432e-05, Final residual = 1.0963023e-06, No Iterations 1
GAMG:  Solving for p, Initial residual = 0.00011328001, Final residual = 5.5466272e-07, No Iterations 4
GAMG:  Solving for p, Initial residual = 6.9284467e-06, Final residual = 6.4708041e-08, No Iterations 3
GAMG:  Solving for p, Initial residual = 1.0266279e-06, Final residual = 8.3875611e-09, No Iterations 3
GAMG:  Solving for p, Initial residual = 2.3075073e-07, Final residual = 9.7633691e-09, No Iterations 1
GAMG:  Solving for p, Initial residual = 5.6580228e-08, Final residual = 4.6434299e-09, No Iterations 1
GAMG:  Solving for p, Initial residual = 1.6842722e-08, Final residual = 2.1151445e-09, No Iterations 1
time step continuity errors : sum local = 1.2946955e-08, global = 5.2353888e-09, cumulative = -1.3698978e-05
smoothSolver:  Solving for omega, Initial residual = 2.3595554e-05, Final residual = 1.5446433e-06, No Iterations 3
smoothSolver:  Solving for k, Initial residual = 0.00024005468, Final residual = 1.5992069e-05, No Iterations 3
ExecutionTime = x.xx s  ClockTime = x.xx s

Time = 98

smoothSolver:  Solving for Ux, Initial residual = 7.9724952e-05, Final residual = 3.1620134e-06, No Iterations 1
smoothSolver:  Solving for Uy, Initial residual = 8.3124472e-06, Final residual = 3.8005936e-07, No Iterations 1
smoothSolver:  Solving for Uz, Initial residual = 2.5630667e-05, Final residual = 9.6320108e-07, No Iterations 1
GAMG:  Solving for p, Initial residual = 0.00010404579, Final residual = 5.2248211e-07, No Iterations 4
GAMG:  Solving for p, Initial residual = 6.4020084e-06, Final residual = 6.1400387e-08, No Iterations 3
GAMG:  Solving for p, Initial residual = 9.5338964e-07, Final residual = 7.9470661e-09, No Iterations 3
GAMG:  Solving for p, Initial residual = 2.1461391e-07, Final residual = 8.9270568e-09, No Iterations 1
GAMG:  Solving for p, Initial residual = 5.2374335e-08, Final residual = 4.298835e-09, No Iterations 1
GAMG:  Solving for p, Initial residual = 1.5564419e-08, Final residual = 1.9605862e-09, No Iterations 1
time step continuity errors : sum local = 1.199985e-08, global = 4.8974733e-09, cumulative = -1.369408e-05
smoothSolver:  Solving for omega, Initial residual = 2.1111092e-05, Final residual = 1.370231e-06, No Iterations 3
smoothSolver:  Solving for k, Initial residual = 0.00021076338, Final residual = 1.4020807e-05, No Iterations 3
ExecutionTime = x.xx s  ClockTime = x.xx s

Time = 99

smoothSolver:  Solving for Ux, Initial residual = 7.1930444e-05, Final residual = 2.8634348e-06, No Iterations 1
smoothSolver:  Solving for Uy, Initial residual = 7.5321376e-06, Final residual = 3.3974264e-07, No Iterations 1
smoothSolver:  Solving for Uz, Initial residual = 2.2654341e-05, Final residual = 8.4345466e-07, No Iterations 1
GAMG:  Solving for p, Initial residual = 9.5727504e-05, Final residual = 4.8770439e-07, No Iterations 4
GAMG:  Solving for p, Initial residual = 5.940368e-06, Final residual = 5.7677936e-08, No Iterations 3
GAMG:  Solving for p, Initial residual = 8.8705039e-07, Final residual = 7.6324979e-09, No Iterations 3
GAMG:  Solving for p, Initial residual = 1.9954452e-07, Final residual = 8.2730408e-09, No Iterations 1
GAMG:  Solving for p, Initial residual = 4.82568e-08, Final residual = 4.0009502e-09, No Iterations 1
GAMG:  Solving for p, Initial residual = 1.4418097e-08, Final residual = 1.8302089e-09, No Iterations 1
time step continuity errors : sum local = 1.1201023e-08, global = 4.5956456e-09, cumulative = -1.3689484e-05
smoothSolver:  Solving for omega, Initial residual = 1.8839533e-05, Final residual = 1.2125961e-06, No Iterations 3
smoothSolver:  Solving for k, Initial residual = 0.00018524359, Final residual = 1.227565e-05, No Iterations 3
ExecutionTime = x.xx s  ClockTime = x.xx s

Time = 100

smoothSolver:  Solving for Ux, Initial residual = 6.4619198e-05, Final residual = 2.5802518e-06, No Iterations 1
smoothSolver:  Solving for Uy, Initial residual = 6.7940469e-06, Final residual = 3.025142e-07, No Iterations 1
smoothSolver:  Solving for Uz, Initial residual = 1.9946703e-05, Final residual = 7.3606278e-07, No Iterations 1
GAMG:  Solving for p, Initial residual = 8.8336662e-05, Final residual = 4.514243e-07, No Iterations 4
GAMG:  Solving for p, Initial residual = 5.4904711e-06, Final residual = 5.3189997e-08, No Iterations 3
GAMG:  Solving for p, Initial residual = 8.2259194e-07, Final residual = 7.3646377e-09, No Iterations 3
GAMG:  Solving for p, Initial residual = 1.8418696e-07, Final residual = 7.6821363e-09, No Iterations 1
GAMG:  Solving for p, Initial residual = 4.4340239e-08, Final residual = 3.7403549e-09, No Iterations 1
GAMG:  Solving for p, Initial residual = 1.3317421e-08, Final residual = 1.7042747e-09, No Iterations 1
time step continuity errors : sum local = 1.0429615e-08, global = 4.2977225e-09, cumulative = -1.3685187e-05
smoothSolver:  Solving for omega, Initial residual = 1.6765905e-05, Final residual = 1.0704167e-06, No Iterations 3
smoothSolver:  Solving for k, Initial residual = 0.00016286094, Final residual = 1.0730272e-05, No Iterations 3
ExecutionTime = x.xx s  ClockTime = x.xx s

Time = 101

smoothSolver:  Solving for Ux, Initial residual = 5.7847333e-05, Final residual = 2.3118571e-06, No Iterations 1
smoothSolver:  Solving for Uy, Initial residual = 6.1010783e-06, Final residual = 2.6829599e-07, No Iterations 1
smoothSolver:  Solving for Uz, Initial residual = 1.749446e-05, Final residual = 6.4006726e-07, No Iterations 1
GAMG:  Solving for p, Initial residual = 8.1463254e-05, Final residual = 4.1418178e-07, No Iterations 4
GAMG:  Solving for p, Initial residual = 5.0238492e-06, Final residual = 4.8498528e-08, No Iterations 3
GAMG:  Solving for p, Initial residual = 7.5235271e-07, Final residual = 6.9538843e-09, No Iterations 3
GAMG:  Solving for p, Initial residual = 1.6750768e-07, Final residual = 7.0260285e-09, No Iterations 1
GAMG:  Solving for p, Initial residual = 4.0190492e-08, Final residual = 3.4422703e-09, No Iterations 1
GAMG:  Solving for p, Initial residual = 1.2107174e-08, Final residual = 1.5504689e-09, No Iterations 1
time step continuity errors : sum local = 9.4878383e-09, global = 3.9151006e-09, cumulative = -1.3681272e-05
smoothSolver:  Solving for omega, Initial residual = 1.4887634e-05, Final residual = 9.423144e-07, No Iterations 3
smoothSolver:  Solving for k, Initial residual = 0.00014300262, Final residual = 9.3646765e-06, No Iterations 3
ExecutionTime = x.xx s  ClockTime = x.xx s

Time = 102

smoothSolver:  Solving for Ux, Initial residual = 5.1632221e-05, Final residual = 2.0587269e-06, No Iterations 1
smoothSolver:  Solving for Uy, Initial residual = 5.4540031e-06, Final residual = 2.3697967e-07, No Iterations 1
smoothSolver:  Solving for Uz, Initial residual = 1.5285411e-05, Final residual = 5.5460155e-07, No Iterations 1
GAMG:  Solving for p, Initial residual = 7.4869187e-05, Final residual = 3.7633533e-07, No Iterations 4
GAMG:  Solving for p, Initial residual = 4.5901705e-06, Final residual = 4.3796189e-08, No Iterations 3
GAMG:  Solving for p, Initial residual = 6.835565e-07, Final residual = 6.4872607e-09, No Iterations 3
GAMG:  Solving for p, Initial residual = 1.5118752e-07, Final residual = 6.3547168e-09, No Iterations 1
GAMG:  Solving for p, Initial residual = 3.6068899e-08, Final residual = 3.1253535e-09, No Iterations 1
GAMG:  Solving for p, Initial residual = 1.088338e-08, Final residual = 1.3913906e-09, No Iterations 1
time step continuity errors : sum local = 8.5139727e-09, global = 3.5163686e-09, cumulative = -1.3677755e-05
smoothSolver:  Solving for omega, Initial residual = 1.3184356e-05, Final residual = 8.2694657e-07, No Iterations 3
smoothSolver:  Solving for k, Initial residual = 0.00012537585, Final residual = 8.1603811e-06, No Iterations 3
ExecutionTime = x.xx s  ClockTime = x.xx s

Time = 103

smoothSolver:  Solving for Ux, Initial residual = 4.5932316e-05, Final residual = 1.8205458e-06, No Iterations 1
smoothSolver:  Solving for Uy, Initial residual = 4.8532502e-06, Final residual = 2.0836174e-07, No Iterations 1
smoothSolver:  Solving for Uz, Initial residual = 1.3305141e-05, Final residual = 4.788605e-07, No Iterations 1
GAMG:  Solving for p, Initial residual = 6.8494177e-05, Final residual = 3.385632e-07, No Iterations 4
GAMG:  Solving for p, Initial residual = 4.1476845e-06, Final residual = 3.9245249e-08, No Iterations 3
GAMG:  Solving for p, Initial residual = 6.1257104e-07, Final residual = 5.9829617e-09, No Iterations 3
GAMG:  Solving for p, Initial residual = 1.3407231e-07, Final residual = 5.6735112e-09, No Iterations 1
GAMG:  Solving for p, Initial residual = 3.1847727e-08, Final residual = 2.7939578e-09, No Iterations 1
GAMG:  Solving for p, Initial residual = 9.6275689e-09, Final residual = 9.6275689e-09, No Iterations 0
time step continuity errors : sum local = 5.8909022e-08, global = 6.6243889e-09, cumulative = -1.3671131e-05
smoothSolver:  Solving for omega, Initial residual = 1.1645607e-05, Final residual = 7.2348913e-07, No Iterations 3
smoothSolver:  Solving for k, Initial residual = 0.00010978565, Final residual = 7.1039497e-06, No Iterations 3
ExecutionTime = x.xx s  ClockTime = x.xx s

Time = 104

smoothSolver:  Solving for Ux, Initial residual = 4.0679583e-05, Final residual = 1.5992573e-06, No Iterations 1
smoothSolver:  Solving for Uy, Initial residual = 4.2988429e-06, Final residual = 1.8234584e-07, No Iterations 1
smoothSolver:  Solving for Uz, Initial residual = 1.1538287e-05, Final residual = 4.1211472e-07, No Iterations 1
GAMG:  Solving for p, Initial residual = 6.2476628e-05, Final residual = 3.0194534e-07, No Iterations 4
GAMG:  Solving for p, Initial residual = 3.7080579e-06, Final residual = 3.4882636e-08, No Iterations 3
GAMG:  Solving for p, Initial residual = 5.4234697e-07, Final residual = 5.455861e-09, No Iterations 3
GAMG:  Solving for p, Initial residual = 1.1768824e-07, Final residual = 5.0188251e-09, No Iterations 1
GAMG:  Solving for p, Initial residual = 2.7832679e-08, Final residual = 2.489328e-09, No Iterations 1
GAMG:  Solving for p, Initial residual = 8.4375854e-09, Final residual = 8.4375854e-09, No Iterations 0
time step continuity errors : sum local = 5.1625943e-08, global = 5.8590309e-09, cumulative = -1.3665272e-05
smoothSolver:  Solving for omega, Initial residual = 1.0254332e-05, Final residual = 6.311432e-07, No Iterations 3
smoothSolver:  Solving for k, Initial residual = 9.6082769e-05, Final residual = 6.1837552e-06, No Iterations 3
ExecutionTime = x.xx s  ClockTime = x.xx s


SIMPLE solution converged in 104 iterations

End

Finalising parallel run
# check for existing results
make case-report
make[x]: Entering directory '/tests/openfoam-paraview/run/run001'
python3 ../../../tools/sofa-framework/study-structures/openfoam/shared/report.py
no R report is specified in sofa.*.json
make[x]: Leaving directory '/tests/openfoam-paraview/run/run001'
make[x]: Leaving directory '/tests/openfoam-paraview/run/run001'
make paraview-exports
make[x]: Entering directory '/tests/openfoam-paraview/run/run001'
make[x]: Leaving directory '/tests/openfoam-paraview/run/run001'
make[x]: Entering directory '/tests/openfoam-paraview/run'
python3 ../../tools/sofa-framework/src/sofa-tasks.py overview
starting sofa-tasks.py in verbose mode
    with passed entryPoint:  overview
Skip existing folder      doc
Unabel to find RMarkdown file

*** finished sofa-tasks.py *** 

make[x]: Leaving directory '/tests/openfoam-paraview/run'
make[x]: Leaving directory '/tests/openfoam-paraview/run/run001'
